
*** ChampSim Multicore Out-of-Order Simulator ***

Warmup Instructions: 1000000
Simulation Instructions: 10000000
Number of CPUs: 1
LLC sets: 2048
LLC ways: 16
Off-chip DRAM Size: 4096 MB Channels: 1 Width: 64-bit Data Rate: 3200 MT/s

CPU 0 runs /Users/yalucai/ChampSim/dpc3_traces/600.perlbench_s-210B.champsimtrace.xz
CPU 0 Bimodal branch predictor

Warmup complete CPU 0 instructions: 1000001 cycles: 401571 (Simulation time: 0 hr 0 min 2 sec) 

[L1D] handle_read read miss instr_id: 1002932 address: 1fc0cba606a full_addr: 7f032e981a80 cycle: 404370
[L1D] handle_read read miss instr_id: 1078920 address: 1fc0cba5b71 full_addr: 7f032e96dc40 cycle: 462908
[L1D] handle_read read miss instr_id: 1117940 address: 1fc0cba5b75 full_addr: 7f032e96dd40 cycle: 492316
[L1D] handle_read read miss instr_id: 1119536 address: 1fc0cba60ba full_addr: 7f032e982eb0 cycle: 494335
[L1D] handle_read read miss instr_id: 1121198 address: 1fc0cba60f5 full_addr: 7f032e983d60 cycle: 496203
[L1D] handle_read read miss instr_id: 1140993 address: 1fc0cba5baa full_addr: 7f032e96eab0 cycle: 512131
[L1D] handle_read read miss instr_id: 1202891 address: 1fc0cba5bb1 full_addr: 7f032e96ec40 cycle: 559106
[L1D] handle_read read miss instr_id: 1202902 address: 1fc0cba5bb1 full_addr: 7f032e96ec41 cycle: 559116
[L1D] handle_read read miss instr_id: 1253887 address: 1fc0cba5bb6 full_addr: 7f032e96ed80 cycle: 597710
[L1D] handle_read read miss instr_id: 1255936 address: 1fc0cba613e full_addr: 7f032e984fa0 cycle: 600059
[L1D] handle_read read miss instr_id: 1329547 address: 1fc0cba6173 full_addr: 7f032e985ce0 cycle: 656583
[L1D] handle_read read miss instr_id: 1418315 address: 1fc0cba6197 full_addr: 7f032e9865d0 cycle: 725288
[L1D] handle_read read miss instr_id: 1419988 address: 1fc0cba61f7 full_addr: 7f032e987dc0 cycle: 727268
[L1D] handle_read read miss instr_id: 1421705 address: 1fc0cba5bdf full_addr: 7f032e96f7f0 cycle: 729053
[L1D] handle_read read miss instr_id: 1429729 address: 1fc0cba5c37 full_addr: 7f032e970df0 cycle: 735842
[L1D] handle_read read miss instr_id: 1507133 address: 1fc0cba6231 full_addr: 7f032e988c60 cycle: 794971
[L1D] handle_read read miss instr_id: 1588983 address: 1fc0cba5c9e full_addr: 7f032e9727a0 cycle: 857311
[L1D] handle_read read miss instr_id: 1644911 address: 1fc0cba5c4c full_addr: 7f032e971300 cycle: 900683
[L1D] handle_read read miss instr_id: 1653214 address: 1fc0cba624c full_addr: 7f032e989320 cycle: 907523
[L1D] handle_read read miss instr_id: 1655837 address: 1fc0cba5cc5 full_addr: 7f032e973160 cycle: 910142
[L1D] handle_read read miss instr_id: 1685450 address: 1fc0cba5c50 full_addr: 7f032e971400 cycle: 932973
[L1D] handle_read read miss instr_id: 1701081 address: 1fc0cba5c52 full_addr: 7f032e971480 cycle: 944600
[L1D] handle_read read miss instr_id: 1740023 address: 30f903e630a full_addr: c3e40f98c2a0 cycle: 974848
[L1D] handle_read read miss instr_id: 1754009 address: 30f903e630c full_addr: c3e40f98c300 cycle: 985537
[L1D] handle_read read miss instr_id: 1794322 address: 30f903e6310 full_addr: c3e40f98c400 cycle: 1016136
[L1D] handle_read read miss instr_id: 1816418 address: 30f903e6312 full_addr: c3e40f98c480 cycle: 1032794
[L1D] handle_read read miss instr_id: 2027281 address: 30f903e6329 full_addr: c3e40f98ca40 cycle: 1194037
[L1D] handle_read read miss instr_id: 2027292 address: 30f903e6329 full_addr: c3e40f98ca41 cycle: 1194047
[L1D] handle_read read miss instr_id: 2027303 address: 30f903e6329 full_addr: c3e40f98ca42 cycle: 1194057
[L1D] handle_read read miss instr_id: 2027314 address: 30f903e6329 full_addr: c3e40f98ca43 cycle: 1194067
[L1D] handle_read read miss instr_id: 2053678 address: 1fc0cba3e50 full_addr: 7f032e8f9420 cycle: 1215610
[L1D] handle_read read miss instr_id: 2131964 address: 1fc0cba3e8c full_addr: 7f032e8fa300 cycle: 1274834
[L1D] handle_read read miss instr_id: 2131975 address: 1fc0cba3e8c full_addr: 7f032e8fa301 cycle: 1274844
[L1D] handle_read read miss instr_id: 2164519 address: 1fc0cba3e90 full_addr: 7f032e8fa400 cycle: 1299549
[L1D] handle_read read miss instr_id: 2181535 address: 1fc0cba3e92 full_addr: 7f032e8fa480 cycle: 1313057
[L1D] handle_read read miss instr_id: 2181546 address: 1fc0cba3e92 full_addr: 7f032e8fa481 cycle: 1313067
[L1D] handle_read read miss instr_id: 2220703 address: 1fc0cba4052 full_addr: 7f032e9014b8 cycle: 1344205
[L1D] handle_read read miss instr_id: 2258144 address: 1fc0cba6282 full_addr: 7f032e98a080 cycle: 1373622
[L1D] handle_read read miss instr_id: 2303749 address: 1fc0cba5e0b full_addr: 7f032e9782e0 cycle: 1408964
[L1D] handle_read read miss instr_id: 2304015 address: 1fc0cba5e08 full_addr: 7f032e978238 cycle: 1409660
[L1D] handle_read read miss instr_id: 2304399 address: 1fc0cba62ec full_addr: 7f032e98bb28 cycle: 1410487
[L1D] handle_read read miss instr_id: 2304425 address: 1fc0cba4646 full_addr: 7f032e919190 cycle: 1410662
[L1D] handle_read read miss instr_id: 2304435 address: 1fc0cba4645 full_addr: 7f032e919148 cycle: 1410902
[L1D] handle_read read miss instr_id: 2304550 address: 1fc0cba4766 full_addr: 7f032e91d9b4 cycle: 1411245
[L1D] handle_read read miss instr_id: 2304720 address: 1fc0cba49b1 full_addr: 7f032e926c70 cycle: 1411436
[L1D] handle_read read miss instr_id: 2304721 address: 1fc0cba3790 full_addr: 7f032e8de407 cycle: 1411459
[L1D] handle_read read miss instr_id: 2304852 address: 1fc0cba4a71 full_addr: 7f032e929c70 cycle: 1411492
[L1D] handle_read read miss instr_id: 2304925 address: 1fc0cba4950 full_addr: 7f032e92543c cycle: 1411562
[L1D] handle_read read miss instr_id: 2305041 address: 1fc0cba4765 full_addr: 7f032e91d978 cycle: 1411699
[L1D] handle_read read miss instr_id: 2305053 address: 1fc0cba4765 full_addr: 7f032e91d978 cycle: 1411705
[L1D] handle_read read miss instr_id: 2305077 address: 1fc0cba4765 full_addr: 7f032e91d978 cycle: 1411720
[L1D] handle_read read miss instr_id: 2305085 address: 1fc0cba633c full_addr: 7f032e98cf18 cycle: 1411836
[L1D] handle_read read miss instr_id: 2305100 address: 1fc0cba633c full_addr: 7f032e98cf1c cycle: 1411843
[L1D] handle_read read miss instr_id: 2305117 address: 1fc0cba5d8e full_addr: 7f032e9763b8 cycle: 1411987
[L1D] handle_read read miss instr_id: 2305120 address: 1fc0cba6367 full_addr: 7f032e98d9c0 cycle: 1412332
[L1D] handle_read read miss instr_id: 2305194 address: 1fc0cba62ef full_addr: 7f032e98bbc8 cycle: 1412689
[L1D] handle_read read miss instr_id: 2305200 address: 1fc0cba63b9 full_addr: 7f032e98ee74 cycle: 1412946
[L1D] handle_read read miss instr_id: 2305232 address: 1fc0cba62f3 full_addr: 7f032e98bcf8 cycle: 1413219
[L1D] handle_read read miss instr_id: 2305248 address: 1fc0cba62f8 full_addr: 7f032e98be38 cycle: 1413479
[L1D] handle_read read miss instr_id: 2305258 address: 1fc0cba62f9 full_addr: 7f032e98be40 cycle: 1413722
[L1D] handle_read read miss instr_id: 2305283 address: 1fc0cba62f6 full_addr: 7f032e98bdb8 cycle: 1413751
[L1D] handle_read read miss instr_id: 2305290 address: 1fc0cba62f7 full_addr: 7f032e98bdd0 cycle: 1413993
[L1D] handle_read read miss instr_id: 2305307 address: 1fc0cba62f5 full_addr: 7f032e98bd78 cycle: 1414003
[L1D] handle_read read miss instr_id: 2305747 address: 1fc0cba62fa full_addr: 7f032e98be90 cycle: 1414534
[L1D] handle_read read miss instr_id: 2305764 address: 1fc0cba62f2 full_addr: 7f032e98bcb8 cycle: 1414544
[L1D] handle_read read miss instr_id: 2305751 address: 1fc0cba63c4 full_addr: 7f032e98f104 cycle: 1414767
[L1D] handle_read read miss instr_id: 2305754 address: 1fc0cba5e38 full_addr: 7f032e978e0c cycle: 1414891
[L1D] handle_read read miss instr_id: 2305802 address: 1fc0cba4f41 full_addr: 7f032e93d070 cycle: 1415174
[L1D] handle_read read miss instr_id: 2305803 address: 1fc0cba45ef full_addr: 7f032e917bd4 cycle: 1415398
[L1D] handle_read read miss instr_id: 2305808 address: 1fc0cba45ee full_addr: 7f032e917ba8 cycle: 1415398
[L1D] handle_read read miss instr_id: 2305930 address: 1fc0cba4ed8 full_addr: 7f032e93b618 cycle: 1415731
[L1D] handle_read read miss instr_id: 2305931 address: 1fc0cba5fa0 full_addr: 7f032e97e828 cycle: 1415955
[L1D] handle_read read miss instr_id: 2305933 address: 1fc0cba643b full_addr: 7f032e990ee8 cycle: 1416288
[L1D] handle_read read miss instr_id: 2305937 address: 1fc0cba6443 full_addr: 7f032e9910d0 cycle: 1416622
[L1D] handle_read read miss instr_id: 2305957 address: 1fc0cba4f83 full_addr: 7f032e93e0f8 cycle: 1416820
[L1D] handle_read read miss instr_id: 2306161 address: 1fc0cba6494 full_addr: 7f032e992510 cycle: 1417218
[L1D] handle_read read miss instr_id: 2306197 address: 1fc0cba6494 full_addr: 7f032e992528 cycle: 1417226
[L1D] handle_read read miss instr_id: 2306209 address: 1fc0cba6494 full_addr: 7f032e992530 cycle: 1417236
[L1D] handle_read read miss instr_id: 2306221 address: 1fc0cba6494 full_addr: 7f032e992538 cycle: 1417246
[L1D] handle_read read miss instr_id: 2306233 address: 1fc0cba6495 full_addr: 7f032e992540 cycle: 1417256
[L1D] handle_read read miss instr_id: 2306245 address: 1fc0cba6495 full_addr: 7f032e992548 cycle: 1417266
[L1D] handle_read read miss instr_id: 2306257 address: 1fc0cba6495 full_addr: 7f032e992550 cycle: 1417276
[L1D] handle_read read miss instr_id: 2306269 address: 1fc0cba6495 full_addr: 7f032e992558 cycle: 1417286
[L1D] handle_read read miss instr_id: 2306281 address: 1fc0cba6495 full_addr: 7f032e992560 cycle: 1417296
[L1D] handle_read read miss instr_id: 2306835 address: 1fc0cba5e1d full_addr: 7f032e978740 cycle: 1417832
[L1D] handle_read read miss instr_id: 2306855 address: 1fc0cba5e1c full_addr: 7f032e978730 cycle: 1418089
[L1D] handle_read read miss instr_id: 2306861 address: 1fc0cba5e1f full_addr: 7f032e9787e8 cycle: 1418314
[L1D] handle_read read miss instr_id: 2306938 address: 1fc0cba5e20 full_addr: 7f032e978820 cycle: 1418653
[L1D] handle_read read miss instr_id: 2306972 address: 1fc0cba643a full_addr: 7f032e990eb4 cycle: 1418913
[L1D] handle_read read miss instr_id: 2307003 address: 1fc0cba5e1e full_addr: 7f032e9787a0 cycle: 1418956
[L1D] handle_read read miss instr_id: 2307143 address: 1fc0cba64d7 full_addr: 7f032e9935f0 cycle: 1419464
[L1D] handle_read read miss instr_id: 2307169 address: 1fc0cba64e0 full_addr: 7f032e993838 cycle: 1419730
[L1D] handle_read read miss instr_id: 2307185 address: 1fc0cba5e1a full_addr: 7f032e9786b8 cycle: 1419988
[L1D] handle_read read miss instr_id: 2307192 address: 1fc0cba5e1b full_addr: 7f032e9786d0 cycle: 1420230
[L1D] handle_read read miss instr_id: 2307209 address: 1fc0cba5e31 full_addr: 7f032e978c68 cycle: 1420240
[L1D] handle_read read miss instr_id: 2307284 address: 1fc0cba5e23 full_addr: 7f032e9788d0 cycle: 1420589
[L1D] handle_read read miss instr_id: 2307308 address: 1fc0cba64dd full_addr: 7f032e993758 cycle: 1420740
[L1D] handle_read read miss instr_id: 2307425 address: 1fc0cba3231 full_addr: 7f032e8c8c40 cycle: 1421088
[L1D] handle_read read miss instr_id: 2307566 address: 1fc0cba64df full_addr: 7f032e9937f0 cycle: 1421239
[L1D] handle_read read miss instr_id: 2307772 address: 1fc0cba64db full_addr: 7f032e9936d8 cycle: 1421678
[L1D] handle_read read miss instr_id: 2307814 address: 1fc0cba5e25 full_addr: 7f032e978958 cycle: 1422006
[L1D] handle_read read miss instr_id: 2307840 address: 1fc0cba5e2f full_addr: 7f032e978bf8 cycle: 1422272
[L1D] handle_read read miss instr_id: 2307850 address: 1fc0cba5e30 full_addr: 7f032e978c20 cycle: 1422504
[L1D] handle_read read miss instr_id: 2307873 address: 1fc0cba63cc full_addr: 7f032e98f330 cycle: 1422728
[L1D] handle_read read miss instr_id: 2307876 address: 1fc0cba31ae full_addr: 7f032e8c6b88 cycle: 1422961
[L1D] handle_read read miss instr_id: 2307905 address: 1fc0cba31b0 full_addr: 7f032e8c6c10 cycle: 1422962
[L1D] handle_read read miss instr_id: 2307965 address: 1fc0cba31af full_addr: 7f032e8c6bc8 cycle: 1422964
[L1D] handle_read read miss instr_id: 2308010 address: 1fc0cba5e3c full_addr: 7f032e978f18 cycle: 1423269
[L1D] handle_read read miss instr_id: 2308024 address: 1fc0cba5e3b full_addr: 7f032e978ec0 cycle: 1423269
[L1D] handle_read read miss instr_id: 2308049 address: 1fc0cba5e3c full_addr: 7f032e978f28 cycle: 1423290
[L1D] handle_read read miss instr_id: 2308111 address: 1fc0cba63c5 full_addr: 7f032e98f14c cycle: 1423525
[L1D] handle_read read miss instr_id: 2308115 address: 1fc0cba6514 full_addr: 7f032e994520 cycle: 1423858
[L1D] handle_read read miss instr_id: 2308137 address: 1fc0cba655b full_addr: 7f032e9956f0 cycle: 1424441
[L1D] handle_read read miss instr_id: 2308139 address: 1fc0cba5f4c full_addr: 7f032e97d33b cycle: 1424674
[L1D] handle_read read miss instr_id: 2308344 address: 1fc0cba5e26 full_addr: 7f032e9789b8 cycle: 1425092
[L1D] handle_read read miss instr_id: 2308378 address: 1fc0cba64dc full_addr: 7f032e993720 cycle: 1425375
[L1D] handle_read read miss instr_id: 2308660 address: 1fc0cba3e4c full_addr: 7f032e8f9320 cycle: 1425973
[L1D] handle_read read miss instr_id: 2310308 address: 1fc0cba58e0 full_addr: 7f032e963800 cycle: 1428061
[L1D] handle_read read miss instr_id: 2313101 address: 1fc0cba5e39 full_addr: 7f032e978e60 cycle: 1431765
[L1D] handle_read read miss instr_id: 2313104 address: 1fc0cba5e3a full_addr: 7f032e978e81 cycle: 1432001
[L1D] handle_read read miss instr_id: 2322157 address: 1fc0cba3d8c full_addr: 7f032e8f6300 cycle: 1445469
[L1D] handle_read read miss instr_id: 2322187 address: 1fc0cba3d8c full_addr: 7f032e8f6306 cycle: 1445475
[L1D] handle_read read miss instr_id: 2322197 address: 1fc0cba3d8c full_addr: 7f032e8f6308 cycle: 1445483
[L1D] handle_read read miss instr_id: 2326776 address: 1fc0cba5a4c full_addr: 7f032e969300 cycle: 1449525
[L1D] handle_read read miss instr_id: 2326786 address: 1fc0cba5a4c full_addr: 7f032e969302 cycle: 1449535
[L1D] handle_read read miss instr_id: 2330404 address: 1fc0cba5a53 full_addr: 7f032e9694c0 cycle: 1453062
[L1D] handle_read read miss instr_id: 2335350 address: 1fc0cba5b71 full_addr: 7f032e96dc40 cycle: 1458363
[L1D] handle_read read miss instr_id: 2335360 address: 1fc0cba5b71 full_addr: 7f032e96dc42 cycle: 1458373
[L1D] handle_read read miss instr_id: 2335990 address: 1fc0cba5b73 full_addr: 7f032e96dcc0 cycle: 1458898
[L1D] handle_read read miss instr_id: 2336005 address: 1fc0cba5b73 full_addr: 7f032e96dcc3 cycle: 1458908
[L1D] handle_read read miss instr_id: 2341631 address: 1fc0cba5bb1 full_addr: 7f032e96ec40 cycle: 1464807
[L1D] handle_read read miss instr_id: 2341641 address: 1fc0cba5bb1 full_addr: 7f032e96ec42 cycle: 1464817
[L1D] handle_read read miss instr_id: 2342271 address: 1fc0cba5bb3 full_addr: 7f032e96ecc0 cycle: 1465342
[L1D] handle_read read miss instr_id: 2342281 address: 1fc0cba5bb3 full_addr: 7f032e96ecc2 cycle: 1465352
[L1D] handle_read read miss instr_id: 2343669 address: 1fc0cba52f3 full_addr: 7f032e94bcc0 cycle: 1466956
[L1D] handle_read read miss instr_id: 2347592 address: 1fc0cba6173 full_addr: 7f032e985ceb cycle: 1471818
[L1D] handle_read read miss instr_id: 2347652 address: 1fc0cba6173 full_addr: 7f032e985cf7 cycle: 1471824
[L1D] handle_read read miss instr_id: 2353064 address: 1fc0cba5be0 full_addr: 7f032e96f800 cycle: 1477842
[L1D] handle_read read miss instr_id: 2353119 address: 1fc0cba5be0 full_addr: 7f032e96f80b cycle: 1477848
[L1D] handle_read read miss instr_id: 2360602 address: 1fc0cba5ca0 full_addr: 7f032e972800 cycle: 1485119
[L1D] handle_read read miss instr_id: 2360612 address: 1fc0cba5ca0 full_addr: 7f032e972802 cycle: 1485129
[L1D] handle_read read miss instr_id: 2363410 address: 1fc0cba5c4c full_addr: 7f032e97130b cycle: 1488068
[L1D] handle_read read miss instr_id: 2363465 address: 1fc0cba5c4c full_addr: 7f032e971316 cycle: 1488074
[L1D] handle_read read miss instr_id: 2363505 address: 1fc0cba5c4c full_addr: 7f032e97131e cycle: 1488081
[L1D] handle_read read miss instr_id: 2364304 address: 1fc0cba624c full_addr: 7f032e98932b cycle: 1489124
[L1D] handle_read read miss instr_id: 2365561 address: 1fc0cba5473 full_addr: 7f032e951cc0 cycle: 1490959
[L1D] handle_read read miss instr_id: 2370340 address: 30f903e630c full_addr: c3e40f98c300 cycle: 1495233
[L1D] handle_read read miss instr_id: 2370350 address: 30f903e630c full_addr: c3e40f98c302 cycle: 1495243
[L1D] handle_read read miss instr_id: 2378302 address: 30f903e6320 full_addr: c3e40f98c80b cycle: 1502701
[L1D] handle_read read miss instr_id: 2378337 address: 30f903e6320 full_addr: c3e40f98c812 cycle: 1502707
[L1D] handle_read read miss instr_id: 2378387 address: 30f903e6320 full_addr: c3e40f98c81c cycle: 1502713
[L1D] handle_read read miss instr_id: 2387607 address: 1fc0cba3e8c full_addr: 7f032e8fa300 cycle: 1511565
[L1D] handle_read read miss instr_id: 2391086 address: 1fc0cba3f60 full_addr: 7f032e8fd810 cycle: 1515196
[L1D] handle_read read miss instr_id: 2399736 address: 1fc0cba64d9 full_addr: 7f032e993650 cycle: 1524507
[L1D] handle_read read miss instr_id: 2400002 address: 1fc0cba64d6 full_addr: 7f032e9935a8 cycle: 1525118
[L1D] handle_read read miss instr_id: 2400339 address: 1fc0cba4f84 full_addr: 7f032e93e100 cycle: 1525758
[L1D] handle_read read miss instr_id: 2400386 address: 1fc0cba62d3 full_addr: 7f032e98b4f8 cycle: 1525842
[L1D] handle_read read miss instr_id: 2400412 address: 1fc0cba4648 full_addr: 7f032e919210 cycle: 1526117
[L1D] handle_read read miss instr_id: 2400422 address: 1fc0cba4647 full_addr: 7f032e9191c8 cycle: 1526357
[L1D] handle_read read miss instr_id: 2400543 address: 1fc0cba47de full_addr: 7f032e91f7b0 cycle: 1526632
[L1D] handle_read read miss instr_id: 2400770 address: 1fc0cba4764 full_addr: 7f032e91d93c cycle: 1526968
[L1D] handle_read read miss instr_id: 2401072 address: 1fc0cba65ff full_addr: 7f032e997ff8 cycle: 1527550
[L1D] handle_read read miss instr_id: 2401081 address: 1fc0cba6623 full_addr: 7f032e9988f0 cycle: 1527552
[L1D] handle_read read miss instr_id: 2401088 address: 1fc0cba5e40 full_addr: 7f032e97900f cycle: 1527783
[L1D] handle_read read miss instr_id: 2401092 address: 1fc0cba6667 full_addr: 7f032e9999d8 cycle: 1527891
[L1D] handle_read read miss instr_id: 2401096 address: 1fc0cba6687 full_addr: 7f032e99a1ec cycle: 1528136
[L1D] handle_read read miss instr_id: 2401107 address: 1fc0cba4b5a full_addr: 7f032e92d6b0 cycle: 1528296
[L1D] handle_read read miss instr_id: 2401111 address: 1fc0cba66cb full_addr: 7f032e99b2ec cycle: 1528641
[L1D] handle_read read miss instr_id: 2401122 address: 1fc0cba672e full_addr: 7f032e99cb98 cycle: 1528901
[L1D] handle_read read miss instr_id: 2401196 address: 1fc0cba62d6 full_addr: 7f032e98b598 cycle: 1529280
[L1D] handle_read read miss instr_id: 2401202 address: 1fc0cba6771 full_addr: 7f032e99dc54 cycle: 1529646
[L1D] handle_read read miss instr_id: 2401234 address: 1fc0cba62db full_addr: 7f032e98b6c8 cycle: 1529819
[L1D] handle_read read miss instr_id: 2401245 address: 1fc0cba62da full_addr: 7f032e98b6b8 cycle: 1530068
[L1D] handle_read read miss instr_id: 2401250 address: 1fc0cba62e0 full_addr: 7f032e98b808 cycle: 1530293
[L1D] handle_read read miss instr_id: 2401277 address: 1fc0cba62df full_addr: 7f032e98b7f8 cycle: 1530541
[L1D] handle_read read miss instr_id: 2401285 address: 1fc0cba62de full_addr: 7f032e98b788 cycle: 1530766
[L1D] handle_read read miss instr_id: 2401304 address: 1fc0cba62dd full_addr: 7f032e98b778 cycle: 1530909
[L1D] handle_read read miss instr_id: 2401523 address: 1fc0cba4da0 full_addr: 7f032e936800 cycle: 1531261
[L1D] handle_read read miss instr_id: 2401541 address: 1fc0cba4da0 full_addr: 7f032e936818 cycle: 1531271
[L1D] handle_read read miss instr_id: 2401730 address: 1fc0cba62dc full_addr: 7f032e98b738 cycle: 1531402
[L1D] handle_read read miss instr_id: 2401742 address: 1fc0cba62e1 full_addr: 7f032e98b848 cycle: 1531627
[L1D] handle_read read miss instr_id: 2401753 address: 1fc0cba63c0 full_addr: 7f032e98f014 cycle: 1531886
[L1D] handle_read read miss instr_id: 2401756 address: 1fc0cba6799 full_addr: 7f032e99e64c cycle: 1532119
[L1D] handle_read read miss instr_id: 2401804 address: 1fc0cba63c3 full_addr: 7f032e98f0e0 cycle: 1532393
[L1D] handle_read read miss instr_id: 2401827 address: 1fc0cba63c3 full_addr: 7f032e98f0e0 cycle: 1532418
[L1D] handle_read read miss instr_id: 2401805 address: 1fc0cba45f0 full_addr: 7f032e917c3c cycle: 1532517
[L1D] handle_read read miss instr_id: 2401869 address: 1fc0cba45f1 full_addr: 7f032e917c40 cycle: 1532802
[L1D] handle_read read miss instr_id: 2401932 address: 1fc0cba5f9f full_addr: 7f032e97e7c8 cycle: 1533045
[L1D] handle_read read miss instr_id: 2401906 address: 1fc0cba62d9 full_addr: 7f032e98b678 cycle: 1533046
[L1D] handle_read read miss instr_id: 2401933 address: 1fc0cba4e98 full_addr: 7f032e93a638 cycle: 1533278
[L1D] handle_read read miss instr_id: 2401939 address: 1fc0cba67c1 full_addr: 7f032e99f060 cycle: 1533620
[L1D] handle_read read miss instr_id: 2401940 address: 1fc0cba683f full_addr: 7f032e9a0fe7 cycle: 1533953
[L1D] handle_read read miss instr_id: 2401959 address: 1fc0cba4f85 full_addr: 7f032e93e148 cycle: 1534186
[L1D] handle_read read miss instr_id: 2402163 address: 1fc0cba686a full_addr: 7f032e9a1aa0 cycle: 1534596
[L1D] handle_read read miss instr_id: 2402211 address: 1fc0cba686b full_addr: 7f032e9a1ac0 cycle: 1534611
[L1D] handle_read read miss instr_id: 2402223 address: 1fc0cba686b full_addr: 7f032e9a1ac8 cycle: 1534621
[L1D] handle_read read miss instr_id: 2402235 address: 1fc0cba686b full_addr: 7f032e9a1ad0 cycle: 1534631
[L1D] handle_read read miss instr_id: 2402247 address: 1fc0cba686b full_addr: 7f032e9a1ad8 cycle: 1534641
[L1D] handle_read read miss instr_id: 2402259 address: 1fc0cba686b full_addr: 7f032e9a1ae0 cycle: 1534651
[L1D] handle_read read miss instr_id: 2402271 address: 1fc0cba686b full_addr: 7f032e9a1ae8 cycle: 1534661
[L1D] handle_read read miss instr_id: 2402283 address: 1fc0cba686b full_addr: 7f032e9a1af0 cycle: 1534671
[L1D] handle_read read miss instr_id: 2402837 address: 1fc0cba67c7 full_addr: 7f032e99f1c0 cycle: 1535221
[L1D] handle_read read miss instr_id: 2402857 address: 1fc0cba67c6 full_addr: 7f032e99f1b0 cycle: 1535478
[L1D] handle_read read miss instr_id: 2402863 address: 1fc0cba67c9 full_addr: 7f032e99f268 cycle: 1535703
[L1D] handle_read read miss instr_id: 2402940 address: 1fc0cba67ca full_addr: 7f032e99f2a0 cycle: 1536042
[L1D] handle_read read miss instr_id: 2403005 address: 1fc0cba67c8 full_addr: 7f032e99f220 cycle: 1536345
[L1D] handle_read read miss instr_id: 2403145 address: 1fc0cba678d full_addr: 7f032e99e370 cycle: 1536762
[L1D] handle_read read miss instr_id: 2403171 address: 1fc0cba6796 full_addr: 7f032e99e5b8 cycle: 1537028
[L1D] handle_read read miss instr_id: 2403187 address: 1fc0cba67c4 full_addr: 7f032e99f138 cycle: 1537186
[L1D] handle_read read miss instr_id: 2403194 address: 1fc0cba67c5 full_addr: 7f032e99f150 cycle: 1537428
[L1D] handle_read read miss instr_id: 2403211 address: 1fc0cba64f2 full_addr: 7f032e993c88 cycle: 1537447
[L1D] handle_read read miss instr_id: 2403274 address: 1fc0cba64f1 full_addr: 7f032e993c78 cycle: 1537638
[L1D] handle_read read miss instr_id: 2403286 address: 1fc0cba64e3 full_addr: 7f032e9938f0 cycle: 1537763
[L1D] handle_read read miss instr_id: 2403293 address: 1fc0cba64e4 full_addr: 7f032e993908 cycle: 1538005
[L1D] handle_read read miss instr_id: 2403310 address: 1fc0cba6793 full_addr: 7f032e99e4d8 cycle: 1538015
[L1D] handle_read read miss instr_id: 2403427 address: 1fc0cba3231 full_addr: 7f032e8c8c40 cycle: 1538265
[L1D] handle_read read miss instr_id: 2403568 address: 1fc0cba6795 full_addr: 7f032e99e570 cycle: 1538417
[L1D] handle_read read miss instr_id: 2403774 address: 1fc0cba6791 full_addr: 7f032e99e458 cycle: 1538847
[L1D] handle_read read miss instr_id: 2403816 address: 1fc0cba64e5 full_addr: 7f032e993978 cycle: 1539095
[L1D] handle_read read miss instr_id: 2403842 address: 1fc0cba64f0 full_addr: 7f032e993c18 cycle: 1539261
[L1D] handle_read read miss instr_id: 2403875 address: 1fc0cba63c1 full_addr: 7f032e98f060 cycle: 1539401
[L1D] handle_read read miss instr_id: 2403878 address: 1fc0cba31b1 full_addr: 7f032e8c6c48 cycle: 1539634
[L1D] handle_read read miss instr_id: 2403907 address: 1fc0cba31b3 full_addr: 7f032e8c6cd0 cycle: 1539635
[L1D] handle_read read miss instr_id: 2403967 address: 1fc0cba31b2 full_addr: 7f032e8c6c88 cycle: 1539637
[L1D] handle_read read miss instr_id: 2403996 address: 1fc0cba64f7 full_addr: 7f032e993de8 cycle: 1539929
[L1D] handle_read read miss instr_id: 2404006 address: 1fc0cba64f5 full_addr: 7f032e993d6c cycle: 1539929
[L1D] handle_read read miss instr_id: 2404125 address: 1fc0cba64f6 full_addr: 7f032e993da8 cycle: 1540138
[L1D] handle_read read miss instr_id: 2404184 address: 1fc0cba68c2 full_addr: 7f032e9a3088 cycle: 1540433
[L1D] handle_read read miss instr_id: 2404209 address: 1fc0cba30a3 full_addr: 7f032e8c28dd cycle: 1540938
[L1D] handle_read read miss instr_id: 2404612 address: 1fc0cba64e7 full_addr: 7f032e9939d8 cycle: 1542091
[L1D] handle_read read miss instr_id: 2404646 address: 1fc0cba6792 full_addr: 7f032e99e4a0 cycle: 1542374
[L1D] handle_read read miss instr_id: 2415093 address: 1fc0cba59d9 full_addr: 7f032e967640 cycle: 1553185
[L1D] handle_read read miss instr_id: 2415101 address: 1fc0cba59d9 full_addr: 7f032e967641 cycle: 1553191
[L1D] handle_read read miss instr_id: 2415109 address: 1fc0cba59d9 full_addr: 7f032e967642 cycle: 1553197
[L1D] handle_read read miss instr_id: 2421987 address: 1fc0cba5a19 full_addr: 7f032e968640 cycle: 1559237
[L1D] handle_read read miss instr_id: 2421995 address: 1fc0cba5a19 full_addr: 7f032e968641 cycle: 1559243
[L1D] handle_read read miss instr_id: 2422003 address: 1fc0cba5a19 full_addr: 7f032e968642 cycle: 1559249
[L1D] handle_read read miss instr_id: 2445776 address: 1fc0cba5b71 full_addr: 7f032e96dc40 cycle: 1581825
[L1D] handle_read read miss instr_id: 2445784 address: 1fc0cba5b71 full_addr: 7f032e96dc41 cycle: 1581831
[L1D] handle_read read miss instr_id: 2445792 address: 1fc0cba5b71 full_addr: 7f032e96dc42 cycle: 1581837
[L1D] handle_read read miss instr_id: 2455485 address: 1fc0cba5bb1 full_addr: 7f032e96ec40 cycle: 1591383
[L1D] handle_read read miss instr_id: 2455493 address: 1fc0cba5bb1 full_addr: 7f032e96ec41 cycle: 1591389
[L1D] handle_read read miss instr_id: 2455501 address: 1fc0cba5bb1 full_addr: 7f032e96ec42 cycle: 1591395
[L1D] handle_read read miss instr_id: 2459547 address: 1fc0cba5999 full_addr: 7f032e966640 cycle: 1595558
[L1D] handle_read read miss instr_id: 2509638 address: 30f903e6319 full_addr: c3e40f98c640 cycle: 1644865
[L1D] handle_read read miss instr_id: 2509646 address: 30f903e6319 full_addr: c3e40f98c641 cycle: 1644871
[L1D] handle_read read miss instr_id: 2509654 address: 30f903e6319 full_addr: c3e40f98c642 cycle: 1644877
[L1D] handle_read read miss instr_id: 2522397 address: 1fc0cba3d99 full_addr: 7f032e8f6640 cycle: 1656606
[L1D] handle_read read miss instr_id: 2522413 address: 1fc0cba3d99 full_addr: 7f032e8f6642 cycle: 1656616
[L1D] handle_read read miss instr_id: 2522970 address: 1fc0cba3d59 full_addr: 7f032e8f5660 cycle: 1657566
[L1D] handle_read read miss instr_id: 2541903 address: 1fc0cba3e99 full_addr: 7f032e8fa640 cycle: 1676622
[L1D] handle_read read miss instr_id: 2541911 address: 1fc0cba3e99 full_addr: 7f032e8fa641 cycle: 1676628
[L1D] handle_read read miss instr_id: 2541919 address: 1fc0cba3e99 full_addr: 7f032e8fa642 cycle: 1676634
[L1D] handle_read read miss instr_id: 2544226 address: 1fc0cba678f full_addr: 7f032e99e3d0 cycle: 1678942
[L1D] handle_read read miss instr_id: 2544492 address: 1fc0cba678c full_addr: 7f032e99e328 cycle: 1679511
[L1D] handle_read read miss instr_id: 2544876 address: 1fc0cba697b full_addr: 7f032e9a5ec8 cycle: 1680205
[L1D] handle_read read miss instr_id: 2544896 address: 1fc0cba697a full_addr: 7f032e9a5eb8 cycle: 1680462
[L1D] handle_read read miss instr_id: 2544902 address: 1fc0cba464a full_addr: 7f032e919290 cycle: 1680696
[L1D] handle_read read miss instr_id: 2544912 address: 1fc0cba4649 full_addr: 7f032e919248 cycle: 1680936
[L1D] handle_read read miss instr_id: 2545027 address: 1fc0cba4763 full_addr: 7f032e91d8f4 cycle: 1681218
[L1D] handle_read read miss instr_id: 2545266 address: 1fc0cba47dd full_addr: 7f032e91f770 cycle: 1681500
[L1D] handle_read read miss instr_id: 2545197 address: 1fc0cba49b1 full_addr: 7f032e926c70 cycle: 1681509
[L1D] handle_read read miss instr_id: 2545302 address: 1fc0cba47dd full_addr: 7f032e91f778 cycle: 1681509
[L1D] handle_read read miss instr_id: 2545329 address: 1fc0cba4a71 full_addr: 7f032e929c70 cycle: 1681774
[L1D] handle_read read miss instr_id: 2545518 address: 1fc0cba4762 full_addr: 7f032e91d8b8 cycle: 1681890
[L1D] handle_read read miss instr_id: 2545530 address: 1fc0cba4762 full_addr: 7f032e91d8b8 cycle: 1681896
[L1D] handle_read read miss instr_id: 2545554 address: 1fc0cba4762 full_addr: 7f032e91d8b8 cycle: 1681911
[L1D] handle_read read miss instr_id: 2545671 address: 1fc0cba697d full_addr: 7f032e9a5f68 cycle: 1682242
[L1D] handle_read read miss instr_id: 2545677 address: 1fc0cba4ba3 full_addr: 7f032e92e8dc cycle: 1682499
[L1D] handle_read read miss instr_id: 2545706 address: 1fc0cba6962 full_addr: 7f032e9a5898 cycle: 1682796
[L1D] handle_read read miss instr_id: 2545732 address: 1fc0cba464c full_addr: 7f032e919310 cycle: 1683062
[L1D] handle_read read miss instr_id: 2545742 address: 1fc0cba464b full_addr: 7f032e9192c8 cycle: 1683302
[L1D] handle_read read miss instr_id: 2546090 address: 1fc0cba4761 full_addr: 7f032e91d87c cycle: 1683718
[L1D] handle_read read miss instr_id: 2546349 address: 1fc0cba47dc full_addr: 7f032e91f730 cycle: 1683945
[L1D] handle_read read miss instr_id: 2546361 address: 1fc0cba47dc full_addr: 7f032e91f738 cycle: 1683951
[L1D] handle_read read miss instr_id: 2546401 address: 1fc0cba69a4 full_addr: 7f032e9a6900 cycle: 1684198
[L1D] handle_read read miss instr_id: 2546392 address: 1fc0cba4aab full_addr: 7f032e92aad8 cycle: 1684199
[L1D] handle_read read miss instr_id: 2546412 address: 1fc0cba69e4 full_addr: 7f032e9a7910 cycle: 1684531
[L1D] handle_read read miss instr_id: 2546416 address: 1fc0cba6a3c full_addr: 7f032e9a8f0c cycle: 1684776
[L1D] handle_read read miss instr_id: 2546427 address: 1fc0cba69db full_addr: 7f032e9a76d0 cycle: 1684927
[L1D] handle_read read miss instr_id: 2546431 address: 1fc0cba6a53 full_addr: 7f032e9a94ec cycle: 1685272
[L1D] handle_read read miss instr_id: 2546433 address: 1fc0cba6a54 full_addr: 7f032e9a9502 cycle: 1685396
[L1D] handle_read read miss instr_id: 2546442 address: 1fc0cba4b54 full_addr: 7f032e92d500 cycle: 1685539
[L1D] handle_read read miss instr_id: 2546516 address: 1fc0cba6964 full_addr: 7f032e9a5938 cycle: 1685918
[L1D] handle_read read miss instr_id: 2546522 address: 1fc0cba6a9f full_addr: 7f032e9aa7f4 cycle: 1686275
[L1D] handle_read read miss instr_id: 2546551 address: 1fc0cba6ad9 full_addr: 7f032e9ab640 cycle: 1686670
[L1D] handle_read read miss instr_id: 2546571 address: 1fc0cba6ad8 full_addr: 7f032e9ab630 cycle: 1686928
[L1D] handle_read read miss instr_id: 2546577 address: 1fc0cba464e full_addr: 7f032e919390 cycle: 1687153
[L1D] handle_read read miss instr_id: 2546587 address: 1fc0cba464d full_addr: 7f032e919348 cycle: 1687393
[L1D] handle_read read miss instr_id: 2546702 address: 1fc0cba4760 full_addr: 7f032e91d834 cycle: 1687639
[L1D] handle_read read miss instr_id: 2547193 address: 1fc0cba475f full_addr: 7f032e91d7f8 cycle: 1688170
[L1D] handle_read read miss instr_id: 2547205 address: 1fc0cba475f full_addr: 7f032e91d7f8 cycle: 1688176
[L1D] handle_read read miss instr_id: 2547229 address: 1fc0cba475f full_addr: 7f032e91d7f8 cycle: 1688191
[L1D] handle_read read miss instr_id: 2547237 address: 1fc0cba6b32 full_addr: 7f032e9acca8 cycle: 1688307
[L1D] handle_read read miss instr_id: 2547246 address: 1fc0cba4b24 full_addr: 7f032e92c908 cycle: 1688309
[L1D] handle_read read miss instr_id: 2547252 address: 1fc0cba6b32 full_addr: 7f032e9accac cycle: 1688395
[L1D] handle_read read miss instr_id: 2547253 address: 1fc0cba6b33 full_addr: 7f032e9accc3 cycle: 1688431
[L1D] handle_read read miss instr_id: 2547257 address: 1fc0cba6b79 full_addr: 7f032e9ade68 cycle: 1688642
[L1D] handle_read read miss instr_id: 2547331 address: 1fc0cba6adb full_addr: 7f032e9ab6e0 cycle: 1688899
[L1D] handle_read read miss instr_id: 2547337 address: 1fc0cba6b80 full_addr: 7f032e9ae00c cycle: 1689156
[L1D] handle_read read miss instr_id: 2547363 address: 1fc0cba6adc full_addr: 7f032e9ab700 cycle: 1689407
[L1D] handle_read read miss instr_id: 2547369 address: 1fc0cba6950 full_addr: 7f032e9a5438 cycle: 1689632
[L1D] handle_read read miss instr_id: 2547385 address: 1fc0cba6955 full_addr: 7f032e9a5578 cycle: 1689790
[L1D] handle_read read miss instr_id: 2547395 address: 1fc0cba6956 full_addr: 7f032e9a5580 cycle: 1690033
[L1D] handle_read read miss instr_id: 2547420 address: 1fc0cba6953 full_addr: 7f032e9a54f8 cycle: 1690062
[L1D] handle_read read miss instr_id: 2547427 address: 1fc0cba6954 full_addr: 7f032e9a5510 cycle: 1690287
[L1D] handle_read read miss instr_id: 2547444 address: 1fc0cba6952 full_addr: 7f032e9a54b8 cycle: 1690297
[L1D] handle_read read miss instr_id: 2547525 address: 1fc0cba4d23 full_addr: 7f032e9348ee cycle: 1690478
[L1D] handle_read read miss instr_id: 2547596 address: 1fc0cba4d23 full_addr: 7f032e9348f0 cycle: 1690484
[L1D] handle_read read miss instr_id: 2547796 address: 1fc0cba4da3 full_addr: 7f032e9368c0 cycle: 1690610
[L1D] handle_read read miss instr_id: 2547884 address: 1fc0cba6957 full_addr: 7f032e9a55d0 cycle: 1690746
[L1D] handle_read read miss instr_id: 2547901 address: 1fc0cba694f full_addr: 7f032e9a53f8 cycle: 1690756
[L1D] handle_read read miss instr_id: 2547888 address: 1fc0cba6bc6 full_addr: 7f032e9af18c cycle: 1691079
[L1D] handle_read read miss instr_id: 2547891 address: 1fc0cba6c24 full_addr: 7f032e9b093c cycle: 1691312
[L1D] handle_read read miss instr_id: 2547893 address: 1fc0cba6c25 full_addr: 7f032e9b0960 cycle: 1691312
[L1D] handle_read read miss instr_id: 2547939 address: 1fc0cba6bdc full_addr: 7f032e9af738 cycle: 1691588
[L1D] handle_read read miss instr_id: 2547940 address: 1fc0cba45f5 full_addr: 7f032e917d74 cycle: 1691812
[L1D] handle_read read miss instr_id: 2548018 address: 1fc0cba6bdd full_addr: 7f032e9af740 cycle: 1692089
[L1D] handle_read read miss instr_id: 2548067 address: 1fc0cba4ee7 full_addr: 7f032e93b9d8 cycle: 1692138
[L1D] handle_read read miss instr_id: 2548068 address: 1fc0cba6c6e full_addr: 7f032e9b1b88 cycle: 1692471
[L1D] handle_read read miss instr_id: 2548074 address: 1fc0cba6cb4 full_addr: 7f032e9b2d00 cycle: 1692813
[L1D] handle_read read miss instr_id: 2548075 address: 1fc0cba6cec full_addr: 7f032e9b3b0f cycle: 1693146
[L1D] handle_read read miss instr_id: 2548094 address: 1fc0cba4f88 full_addr: 7f032e93e238 cycle: 1693279
[L1D] handle_read read miss instr_id: 2548298 address: 1fc0cba6d1f full_addr: 7f032e9b47c0 cycle: 1693716
[L1D] handle_read read miss instr_id: 2548334 address: 1fc0cba6d1f full_addr: 7f032e9b47d8 cycle: 1693724
[L1D] handle_read read miss instr_id: 2548346 address: 1fc0cba6d1f full_addr: 7f032e9b47e0 cycle: 1693734
[L1D] handle_read read miss instr_id: 2548358 address: 1fc0cba6d1f full_addr: 7f032e9b47e8 cycle: 1693744
[L1D] handle_read read miss instr_id: 2548370 address: 1fc0cba6d1f full_addr: 7f032e9b47f0 cycle: 1693754
[L1D] handle_read read miss instr_id: 2548382 address: 1fc0cba6d1f full_addr: 7f032e9b47f8 cycle: 1693764
[L1D] handle_read read miss instr_id: 2548394 address: 1fc0cba6d20 full_addr: 7f032e9b4800 cycle: 1693774
[L1D] handle_read read miss instr_id: 2548406 address: 1fc0cba6d20 full_addr: 7f032e9b4808 cycle: 1693784
[L1D] handle_read read miss instr_id: 2548418 address: 1fc0cba6d20 full_addr: 7f032e9b4810 cycle: 1693794
[L1D] handle_read read miss instr_id: 2548313 address: 1fc0cba5031 full_addr: 7f032e940c5c cycle: 1693850
[L1D] handle_read read miss instr_id: 2548430 address: 1fc0cba6d20 full_addr: 7f032e9b4818 cycle: 1693858
[L1D] handle_read read miss instr_id: 2548442 address: 1fc0cba6d20 full_addr: 7f032e9b4820 cycle: 1693875
[L1D] handle_read read miss instr_id: 2548466 address: 1fc0cba6d20 full_addr: 7f032e9b4830 cycle: 1693882
[L1D] handle_read read miss instr_id: 2548505 address: 1fc0cba5023 full_addr: 7f032e9408fc cycle: 1693944
[L1D] handle_read read miss instr_id: 2548661 address: 1fc0cba5363 full_addr: 7f032e94d8c4 cycle: 1694011
[L1D] handle_read read miss instr_id: 2548972 address: 1fc0cba6cb9 full_addr: 7f032e9b2e60 cycle: 1694330
[L1D] handle_read read miss instr_id: 2548998 address: 1fc0cba6cbc full_addr: 7f032e9b2f08 cycle: 1694496
[L1D] handle_read read miss instr_id: 2549067 address: 1fc0cba6cbb full_addr: 7f032e9b2ef8 cycle: 1694712
[L1D] handle_read read miss instr_id: 2549075 address: 1fc0cba6cbd full_addr: 7f032e9b2f40 cycle: 1694837
[L1D] handle_read read miss instr_id: 2549109 address: 1fc0cba6bd6 full_addr: 7f032e9af594 cycle: 1694997
[L1D] handle_read read miss instr_id: 2549268 address: 1fc0cba6cba full_addr: 7f032e9b2eb0 cycle: 1695302
[L1D] handle_read read miss instr_id: 2549280 address: 1fc0cba6c19 full_addr: 7f032e9b0660 cycle: 1695436
[L1D] handle_read read miss instr_id: 2549306 address: 1fc0cba6c22 full_addr: 7f032e9b08a8 cycle: 1695602
[L1D] handle_read read miss instr_id: 2549322 address: 1fc0cba6cb7 full_addr: 7f032e9b2dd8 cycle: 1695760
[L1D] handle_read read miss instr_id: 2549346 address: 1fc0cba6d7c full_addr: 7f032e9b5f38 cycle: 1696020
[L1D] handle_read read miss instr_id: 2549358 address: 1fc0cba6d7d full_addr: 7f032e9b5f4a cycle: 1696152
[L1D] handle_read read miss instr_id: 2549421 address: 1fc0cba6d6e full_addr: 7f032e9b5ba0 cycle: 1696371
[L1D] handle_read read miss instr_id: 2549445 address: 1fc0cba6c1f full_addr: 7f032e9b07c8 cycle: 1696622
[L1D] handle_read read miss instr_id: 2549562 address: 1fc0cba3231 full_addr: 7f032e8c8c40 cycle: 1696868
[L1D] handle_read read miss instr_id: 2549691 address: 1fc0cba6c1e full_addr: 7f032e9b07b8 cycle: 1697010
[L1D] handle_read read miss instr_id: 2549703 address: 1fc0cba6c21 full_addr: 7f032e9b0860 cycle: 1697135
[L1D] handle_read read miss instr_id: 2549909 address: 1fc0cba6c1d full_addr: 7f032e9b0748 cycle: 1697578
[L1D] handle_read read miss instr_id: 2549951 address: 1fc0cba6d70 full_addr: 7f032e9b5c28 cycle: 1697830
[L1D] handle_read read miss instr_id: 2549977 address: 1fc0cba6d7b full_addr: 7f032e9b5ec8 cycle: 1697996
[L1D] handle_read read miss instr_id: 2550010 address: 1fc0cba6bcf full_addr: 7f032e9af3e8 cycle: 1698136
[L1D] handle_read read miss instr_id: 2550013 address: 1fc0cba31ba full_addr: 7f032e8c6e88 cycle: 1698369
[L1D] handle_read read miss instr_id: 2550042 address: 1fc0cba31bc full_addr: 7f032e8c6f10 cycle: 1698370
[L1D] handle_read read miss instr_id: 2550102 address: 1fc0cba31bb full_addr: 7f032e8c6ec8 cycle: 1698372
[L1D] handle_read read miss instr_id: 2550131 address: 1fc0cba6c03 full_addr: 7f032e9b00d8 cycle: 1698593
[L1D] handle_read read miss instr_id: 2550141 address: 1fc0cba6c01 full_addr: 7f032e9b004c cycle: 1698669
[L1D] handle_read read miss instr_id: 2550273 address: 1fc0cba6c00 full_addr: 7f032e9b0030 cycle: 1698910
[L1D] handle_read read miss instr_id: 2550260 address: 1fc0cba6c02 full_addr: 7f032e9b0098 cycle: 1698916
[L1D] handle_read read miss instr_id: 2550346 address: 30f903e6372 full_addr: c3e40f98dcbc cycle: 1699231
[L1D] handle_read read miss instr_id: 2550345 address: 1fc0cba5f4c full_addr: 7f032e97d330 cycle: 1699237
[L1D] handle_read read miss instr_id: 2550357 address: 30f903e6372 full_addr: c3e40f98dc80 cycle: 1699238
[L1D] handle_read read miss instr_id: 2550397 address: 1fc0cba6d71 full_addr: 7f032e9b5c58 cycle: 1699410
[L1D] handle_read read miss instr_id: 2550684 address: 1fc0cba30a3 full_addr: 7f032e8c28dc cycle: 1699691
[L1D] handle_read read miss instr_id: 2550810 address: 30f903e6373 full_addr: c3e40f98dcdc cycle: 1699836
[L1D] handle_read read miss instr_id: 2550821 address: 30f903e6373 full_addr: c3e40f98dcfc cycle: 1699847
[L1D] handle_read read miss instr_id: 2551351 address: 30f903e6371 full_addr: c3e40f98dc54 cycle: 1700255
[L1D] handle_read read miss instr_id: 2554259 address: 1fc0cba6d7a full_addr: 7f032e9b5eb8 cycle: 1702737
[L1D] handle_read read miss instr_id: 2554271 address: 1fc0cba6d72 full_addr: 7f032e9b5c88 cycle: 1702862
[L1D] handle_read read miss instr_id: 2554587 address: 1fc0cba3e4c full_addr: 7f032e8f9320 cycle: 1703545
[L1D] handle_read read miss instr_id: 2554915 address: 30f903e6370 full_addr: c3e40f98dc18 cycle: 1703789
[L1D] handle_read read miss instr_id: 2567189 address: 1fc0cba58e0 full_addr: 7f032e963800 cycle: 1714195
[L1D] handle_read read miss instr_id: 2618669 address: 1fc0cba59d4 full_addr: 7f032e967500 cycle: 1754030
[L1D] handle_read read miss instr_id: 2618680 address: 1fc0cba59d4 full_addr: 7f032e967501 cycle: 1754044
[L1D] handle_read read miss instr_id: 2730096 address: 1fc0cba5a14 full_addr: 7f032e968500 cycle: 1838354
[L1D] handle_read read miss instr_id: 2824446 address: 1fc0cba3d8c full_addr: 7f032e8f6300 cycle: 1909942
[L1D] handle_read read miss instr_id: 2909230 address: 1fc0cba3d94 full_addr: 7f032e8f6500 cycle: 1973918
[L1D] handle_read read miss instr_id: 2962482 address: 1fc0cba5a4c full_addr: 7f032e969300 cycle: 2014527
[L1D] handle_read read miss instr_id: 3116488 address: 1fc0cba5b71 full_addr: 7f032e96dc40 cycle: 2133214
[L1D] handle_read read miss instr_id: 3138186 address: 1fc0cba5b73 full_addr: 7f032e96dcc0 cycle: 2149554
[L1D] handle_read read miss instr_id: 3138197 address: 1fc0cba5b73 full_addr: 7f032e96dcc1 cycle: 2149564
[L1D] handle_read read miss instr_id: 3156479 address: 1fc0cba60ba full_addr: 7f032e982eb0 cycle: 2163957
[L1D] handle_read read miss instr_id: 3157783 address: 1fc0cba5024 full_addr: 7f032e940900 cycle: 2165474
[L1D] handle_read read miss instr_id: 3238011 address: 1fc0cba5bb1 full_addr: 7f032e96ec40 cycle: 2226958
[L1D] handle_read read miss instr_id: 3238022 address: 1fc0cba5bb1 full_addr: 7f032e96ec41 cycle: 2226968
[L1D] handle_read read miss instr_id: 3257587 address: 1fc0cba5bb3 full_addr: 7f032e96ecc0 cycle: 2241659
[L1D] handle_read read miss instr_id: 3290028 address: 1fc0cba52f3 full_addr: 7f032e94bcc0 cycle: 2266751
[L1D] handle_read read miss instr_id: 3329001 address: 1fc0cba5bba full_addr: 7f032e96ee80 cycle: 2296336
[L1D] handle_read read miss instr_id: 3363796 address: 1fc0cba6173 full_addr: 7f032e985ce0 cycle: 2322962
[L1D] handle_read read miss instr_id: 3457424 address: 1fc0cba5be0 full_addr: 7f032e96f800 cycle: 2395886
[L1D] handle_read read miss instr_id: 3484237 address: 1fc0cba5c3a full_addr: 7f032e970e80 cycle: 2416611
[L1D] handle_read read miss instr_id: 3484248 address: 1fc0cba5c3a full_addr: 7f032e970e81 cycle: 2416621
[L1D] handle_read read miss instr_id: 3538063 address: 1fc0cba6231 full_addr: 7f032e988c60 cycle: 2457800
[L1D] handle_read read miss instr_id: 3631431 address: 1fc0cba5ca0 full_addr: 7f032e972800 cycle: 2528989
[L1D] handle_read read miss instr_id: 3673345 address: 1fc0cba5c4c full_addr: 7f032e971300 cycle: 2561720
[L1D] handle_read read miss instr_id: 3681525 address: 1fc0cba624c full_addr: 7f032e989320 cycle: 2568366
[L1D] handle_read read miss instr_id: 3690919 address: 1fc0cba5473 full_addr: 7f032e951cc0 cycle: 2576509
[L1D] handle_read read miss instr_id: 3690917 address: 1fc0cba427a full_addr: 7f032e909ea0 cycle: 2576525
[L1D] handle_read read miss instr_id: 3745600 address: 1fc0cba5c54 full_addr: 7f032e971500 cycle: 2617169
[L1D] handle_read read miss instr_id: 3766704 address: 1fc0cba3fe4 full_addr: 7f032e8ff930 cycle: 2634165
[L1D] handle_read read miss instr_id: 3781056 address: 30f903e630c full_addr: c3e40f98c300 cycle: 2644951
[L1D] handle_read read miss instr_id: 3864738 address: 30f903e6314 full_addr: c3e40f98c500 cycle: 2708427
[L1D] handle_read read miss instr_id: 3970564 address: 30f903e6320 full_addr: c3e40f98c800 cycle: 2790500
[L1D] handle_read read miss instr_id: 3999829 address: 30f903e6323 full_addr: c3e40f98c8c0 cycle: 2812372
[L1D] handle_read read miss instr_id: 3999840 address: 30f903e6323 full_addr: c3e40f98c8c1 cycle: 2812382
[L1D] handle_read read miss instr_id: 4009153 address: 30f903e6324 full_addr: c3e40f98c900 cycle: 2819464
[L1D] handle_read read miss instr_id: 4009164 address: 30f903e6324 full_addr: c3e40f98c901 cycle: 2819474
[L1D] handle_read read miss instr_id: 4157128 address: 1fc0cba3e8c full_addr: 7f032e8fa300 cycle: 2932868
[L1D] handle_read read miss instr_id: 4157139 address: 1fc0cba3e8c full_addr: 7f032e8fa301 cycle: 2932878
[L1D] handle_read read miss instr_id: 4224153 address: 1fc0cba3f60 full_addr: 7f032e8fd810 cycle: 2984888
[L1D] handle_read read miss instr_id: 4245643 address: 1fc0cba3e94 full_addr: 7f032e8fa500 cycle: 3002148
[L1D] handle_read read miss instr_id: 4325958 address: 1fc0cba6c1c full_addr: 7f032e9b0738 cycle: 3064308
[L1D] handle_read read miss instr_id: 4325964 address: 1fc0cba6c1b full_addr: 7f032e9b06c0 cycle: 3064433
[L1D] handle_read read miss instr_id: 4326220 address: 1fc0cba6c1a full_addr: 7f032e9b06b0 cycle: 3064981
[L1D] handle_read read miss instr_id: 4326230 address: 1fc0cba6c18 full_addr: 7f032e9b0618 cycle: 3065106
[L1D] handle_read read miss instr_id: 4326567 address: 1fc0cba4f89 full_addr: 7f032e93e240 cycle: 3065634
[L1D] handle_read read miss instr_id: 4326614 address: 1fc0cba6ac0 full_addr: 7f032e9ab010 cycle: 3065718
[L1D] handle_read read miss instr_id: 4326640 address: 1fc0cba4650 full_addr: 7f032e919410 cycle: 3065993
[L1D] handle_read read miss instr_id: 4326650 address: 1fc0cba464f full_addr: 7f032e9193c8 cycle: 3066233
[L1D] handle_read read miss instr_id: 4326771 address: 1fc0cba47db full_addr: 7f032e91f6f0 cycle: 3066503
[L1D] handle_read read miss instr_id: 4326935 address: 1fc0cba49b1 full_addr: 7f032e926c70 cycle: 3066814
[L1D] handle_read read miss instr_id: 4326998 address: 1fc0cba475e full_addr: 7f032e91d7bc cycle: 3066825
[L1D] handle_read read miss instr_id: 4326936 address: 1fc0cba3790 full_addr: 7f032e8de407 cycle: 3066837
[L1D] handle_read read miss instr_id: 4327067 address: 1fc0cba4a71 full_addr: 7f032e929c70 cycle: 3066870
[L1D] handle_read read miss instr_id: 4327140 address: 1fc0cba4950 full_addr: 7f032e92543c cycle: 3067095
[L1D] handle_read read miss instr_id: 4327300 address: 1fc0cba6dc0 full_addr: 7f032e9b7038 cycle: 3067346
[L1D] handle_read read miss instr_id: 4327316 address: 1fc0cba6dc1 full_addr: 7f032e9b704b cycle: 3067570
[L1D] handle_read read miss instr_id: 4327335 address: 1fc0cba6e0c full_addr: 7f032e9b8308 cycle: 3067930
[L1D] handle_read read miss instr_id: 4327339 address: 1fc0cba6e5a full_addr: 7f032e9b968c cycle: 3068175
[L1D] handle_read read miss instr_id: 4327350 address: 1fc0cba6eb8 full_addr: 7f032e9bae30 cycle: 3068435
[L1D] handle_read read miss instr_id: 4327354 address: 1fc0cba6ef2 full_addr: 7f032e9bbcac cycle: 3068767
[L1D] handle_read read miss instr_id: 4327365 address: 1fc0cba6f09 full_addr: 7f032e9bc258 cycle: 3068768
[L1D] handle_read read miss instr_id: 4327439 address: 1fc0cba6ac2 full_addr: 7f032e9ab0b0 cycle: 3069055
[L1D] handle_read read miss instr_id: 4327445 address: 1fc0cba6f63 full_addr: 7f032e9bd8e4 cycle: 3069412
[L1D] handle_read read miss instr_id: 4327465 address: 1fc0cba6ac3 full_addr: 7f032e9ab0c0 cycle: 3069676
[L1D] handle_read read miss instr_id: 4327477 address: 1fc0cba6ac7 full_addr: 7f032e9ab1e0 cycle: 3069901
[L1D] handle_read read miss instr_id: 4327493 address: 1fc0cba6acc full_addr: 7f032e9ab320 cycle: 3070168
[L1D] handle_read read miss instr_id: 4327528 address: 1fc0cba6aca full_addr: 7f032e9ab2a0 cycle: 3070441
[L1D] handle_read read miss instr_id: 4327552 address: 1fc0cba6ac9 full_addr: 7f032e9ab260 cycle: 3070592
[L1D] handle_read read miss instr_id: 4327985 address: 1fc0cba6acd full_addr: 7f032e9ab360 cycle: 3071098
[L1D] handle_read read miss instr_id: 4328009 address: 1fc0cba6ac6 full_addr: 7f032e9ab1a0 cycle: 3071349
[L1D] handle_read read miss instr_id: 4327996 address: 1fc0cba6f8f full_addr: 7f032e9be3fc cycle: 3071457
[L1D] handle_read read miss instr_id: 4327998 address: 1fc0cba6f90 full_addr: 7f032e9be400 cycle: 3071457
[L1D] handle_read read miss instr_id: 4327999 address: 1fc0cba6fcd full_addr: 7f032e9bf35c cycle: 3071691
[L1D] handle_read read miss instr_id: 4328001 address: 1fc0cba6fce full_addr: 7f032e9bf380 cycle: 3071691
[L1D] handle_read read miss instr_id: 4328047 address: 1fc0cba6ceb full_addr: 7f032e9b3ae8 cycle: 3071981
[L1D] handle_read read miss instr_id: 4328048 address: 1fc0cba45f7 full_addr: 7f032e917ddc cycle: 3072205
[L1D] handle_read read miss instr_id: 4328053 address: 1fc0cba45f6 full_addr: 7f032e917db0 cycle: 3072205
[L1D] handle_read read miss instr_id: 4328175 address: 1fc0cba703d full_addr: 7f032e9c0f78 cycle: 3072631
[L1D] handle_read read miss instr_id: 4328176 address: 1fc0cba7071 full_addr: 7f032e9c1c48 cycle: 3072964
[L1D] handle_read read miss instr_id: 4328178 address: 1fc0cba70bd full_addr: 7f032e9c2f68 cycle: 3073297
[L1D] handle_read read miss instr_id: 4328182 address: 1fc0cba70e9 full_addr: 7f032e9c3a40 cycle: 3073531
[L1D] handle_read read miss instr_id: 4328202 address: 1fc0cba4f8c full_addr: 7f032e93e328 cycle: 3073719
[L1D] handle_read read miss instr_id: 4328406 address: 1fc0cba7105 full_addr: 7f032e9c4170 cycle: 3074117
[L1D] handle_read read miss instr_id: 4328430 address: 1fc0cba7106 full_addr: 7f032e9c4180 cycle: 3074118
[L1D] handle_read read miss instr_id: 4328442 address: 1fc0cba7106 full_addr: 7f032e9c4188 cycle: 3074125
[L1D] handle_read read miss instr_id: 4328454 address: 1fc0cba7106 full_addr: 7f032e9c4190 cycle: 3074135
[L1D] handle_read read miss instr_id: 4328466 address: 1fc0cba7106 full_addr: 7f032e9c4198 cycle: 3074145
[L1D] handle_read read miss instr_id: 4328478 address: 1fc0cba7106 full_addr: 7f032e9c41a0 cycle: 3074155
[L1D] handle_read read miss instr_id: 4328490 address: 1fc0cba7106 full_addr: 7f032e9c41a8 cycle: 3074165
[L1D] handle_read read miss instr_id: 4328502 address: 1fc0cba7106 full_addr: 7f032e9c41b0 cycle: 3074175
[L1D] handle_read read miss instr_id: 4328514 address: 1fc0cba7106 full_addr: 7f032e9c41b8 cycle: 3074185
[L1D] handle_read read miss instr_id: 4328526 address: 1fc0cba7107 full_addr: 7f032e9c41c0 cycle: 3074195
[L1D] handle_read read miss instr_id: 4328421 address: 1fc0cba5031 full_addr: 7f032e940c5c cycle: 3074200
[L1D] handle_read read miss instr_id: 4328538 address: 1fc0cba7107 full_addr: 7f032e9c41c8 cycle: 3074205
[L1D] handle_read read miss instr_id: 4329080 address: 1fc0cba6c2e full_addr: 7f032e9b0b90 cycle: 3074731
[L1D] handle_read read miss instr_id: 4329106 address: 1fc0cba6c30 full_addr: 7f032e9b0c38 cycle: 3074997
[L1D] handle_read read miss instr_id: 4329112 address: 1fc0cba6c31 full_addr: 7f032e9b0c4a cycle: 3075229
[L1D] handle_read read miss instr_id: 4329199 address: 1fc0cba6c32 full_addr: 7f032e9b0c82 cycle: 3075571
[L1D] handle_read read miss instr_id: 4329248 address: 1fc0cba6c2f full_addr: 7f032e9b0bf0 cycle: 3075808
[L1D] handle_read read miss instr_id: 4329388 address: 1fc0cba7156 full_addr: 7f032e9c5580 cycle: 3076304
[L1D] handle_read read miss instr_id: 4329408 address: 1fc0cba7155 full_addr: 7f032e9c5570 cycle: 3076561
[L1D] handle_read read miss instr_id: 4329414 address: 1fc0cba715f full_addr: 7f032e9c57c8 cycle: 3076686
[L1D] handle_read read miss instr_id: 4329425 address: 1fc0cba715e full_addr: 7f032e9c57b8 cycle: 3076935
[L1D] handle_read read miss instr_id: 4329430 address: 1fc0cba6c2c full_addr: 7f032e9b0b08 cycle: 3077060
[L1D] handle_read read miss instr_id: 4329449 address: 1fc0cba6c2b full_addr: 7f032e9b0af8 cycle: 3077303
[L1D] handle_read read miss instr_id: 4329454 address: 1fc0cba7182 full_addr: 7f032e9c60b8 cycle: 3077637
[L1D] handle_read read miss instr_id: 4329466 address: 1fc0cba7183 full_addr: 7f032e9c60ca cycle: 3077869
[L1D] handle_read read miss instr_id: 4329529 address: 1fc0cba6c34 full_addr: 7f032e9b0d20 cycle: 3078188
[L1D] handle_read read miss instr_id: 4329553 address: 1fc0cba715b full_addr: 7f032e9c56e8 cycle: 3078339
[L1D] handle_read read miss instr_id: 4329670 address: 1fc0cba3231 full_addr: 7f032e8c8c40 cycle: 3078591
[L1D] handle_read read miss instr_id: 4330005 address: 1fc0cba715d full_addr: 7f032e9c5770 cycle: 3079007
[L1D] handle_read read miss instr_id: 4330017 address: 1fc0cba7159 full_addr: 7f032e9c5668 cycle: 3079132
[L1D] handle_read read miss instr_id: 4330053 address: 1fc0cba715a full_addr: 7f032e9c5688 cycle: 3079451
[L1D] handle_read read miss instr_id: 4330059 address: 1fc0cba6c36 full_addr: 7f032e9b0da8 cycle: 3079576
[L1D] handle_read read miss instr_id: 4330085 address: 1fc0cba7181 full_addr: 7f032e9c6048 cycle: 3079842
[L1D] handle_read read miss instr_id: 4330118 address: 1fc0cba70bb full_addr: 7f032e9c2ef0 cycle: 3079982
[L1D] handle_read read miss instr_id: 4330121 address: 1fc0cba31bd full_addr: 7f032e8c6f48 cycle: 3080115
[L1D] handle_read read miss instr_id: 4330150 address: 1fc0cba31bf full_addr: 7f032e8c6fd0 cycle: 3080116
[L1D] handle_read read miss instr_id: 4330210 address: 1fc0cba31be full_addr: 7f032e8c6f88 cycle: 3080118
[L1D] handle_read read miss instr_id: 4330255 address: 1fc0cba71a0 full_addr: 7f032e9c6828 cycle: 3080423
[L1D] handle_read read miss instr_id: 4330269 address: 1fc0cba719f full_addr: 7f032e9c67d0 cycle: 3080423
[L1D] handle_read read miss instr_id: 4330294 address: 1fc0cba71a0 full_addr: 7f032e9c6838 cycle: 3080444
[L1D] handle_read read miss instr_id: 4330321 address: 1fc0cba71a1 full_addr: 7f032e9c6848 cycle: 3080925
[L1D] handle_read read miss instr_id: 4330376 address: 1fc0cba71ce full_addr: 7f032e9c7394 cycle: 3081409
[L1D] handle_read read miss instr_id: 4330380 address: 1fc0cba7222 full_addr: 7f032e9c88a0 cycle: 3081742
[L1D] handle_read read miss instr_id: 4330439 address: 1fc0cba718b full_addr: 7f032e9c62f0 cycle: 3082161
[L1D] handle_read read miss instr_id: 4330477 address: 1fc0cba718b full_addr: 7f032e9c62f0 cycle: 3082180
[L1D] handle_read read miss instr_id: 4330510 address: 1fc0cba68c0 full_addr: 7f032e9a3008 cycle: 3082200
[L1D] handle_read read miss instr_id: 4330442 address: 1fc0cba6fd0 full_addr: 7f032e9bf421 cycle: 3082285
[L1D] handle_read read miss instr_id: 4330543 address: 1fc0cba5f4c full_addr: 7f032e97d330 cycle: 3082897
[L1D] handle_read read miss instr_id: 4330714 address: 1fc0cba718c full_addr: 7f032e9c630c cycle: 3084827
[L1D] handle_read read miss instr_id: 4330862 address: 1fc0cba6c37 full_addr: 7f032e9b0dd8 cycle: 3085731
[L1D] handle_read read miss instr_id: 4331026 address: 30f903e62e6 full_addr: c3e40f98b990 cycle: 3086042
[L1D] handle_read read miss instr_id: 4331093 address: 30f903e62eb full_addr: c3e40f98bae0 cycle: 3086301
[L1D] handle_read read miss instr_id: 4331105 address: 1fc0cba718d full_addr: 7f032e9c6349 cycle: 3086759
[L1D] handle_read read miss instr_id: 4331224 address: 1fc0cba72cd full_addr: 7f032e9cb348 cycle: 3088851
[L1D] handle_read read miss instr_id: 4331560 address: 1fc0cba7180 full_addr: 7f032e9c6038 cycle: 3090297
[L1D] handle_read read miss instr_id: 4331572 address: 1fc0cba6c38 full_addr: 7f032e9b0e08 cycle: 3090522
[L1D] handle_read read miss instr_id: 4331888 address: 1fc0cba3e4c full_addr: 7f032e8f9320 cycle: 3091296
[L1D] handle_read read miss instr_id: 4333618 address: 1fc0cba718e full_addr: 7f032e9c6380 cycle: 3094756
[L1D] handle_read read miss instr_id: 4333649 address: 1fc0cba718e full_addr: 7f032e9c6385 cycle: 3094762
[L1D] handle_read read miss instr_id: 4333885 address: 30f903e62f5 full_addr: c3e40f98bd58 cycle: 3095465
[L1D] handle_read read miss instr_id: 4337225 address: 1fc0cba58e0 full_addr: 7f032e963800 cycle: 3100795
[L1D] handle_read read miss instr_id: 4352042 address: 1fc0cba5a53 full_addr: 7f032e9694c4 cycle: 3118385
[L1D] handle_read read miss instr_id: 4357856 address: 1fc0cba5b16 full_addr: 7f032e96c581 cycle: 3125318
[L1D] handle_read read miss instr_id: 4387181 address: 1fc0cba5c4c full_addr: 7f032e97133c cycle: 3161517
[L1D] handle_read read miss instr_id: 4419708 address: 1fc0cba7157 full_addr: 7f032e9c55e0 cycle: 3200920
[L1D] handle_read read miss instr_id: 4419974 address: 1fc0cba7154 full_addr: 7f032e9c5538 cycle: 3201630
[L1D] handle_read read miss instr_id: 4420358 address: 1fc0cba7367 full_addr: 7f032e9cd9e0 cycle: 3202367
[L1D] handle_read read miss instr_id: 4420384 address: 1fc0cba4652 full_addr: 7f032e919490 cycle: 3202542
[L1D] handle_read read miss instr_id: 4420394 address: 1fc0cba4651 full_addr: 7f032e919448 cycle: 3202782
[L1D] handle_read read miss instr_id: 4420509 address: 1fc0cba475d full_addr: 7f032e91d774 cycle: 3203047
[L1D] handle_read read miss instr_id: 4420748 address: 1fc0cba47da full_addr: 7f032e91f6b0 cycle: 3203463
[L1D] handle_read read miss instr_id: 4421000 address: 1fc0cba475c full_addr: 7f032e91d738 cycle: 3203770
[L1D] handle_read read miss instr_id: 4421036 address: 1fc0cba475c full_addr: 7f032e91d738 cycle: 3203791
[L1D] handle_read read miss instr_id: 4421044 address: 1fc0cba4aa7 full_addr: 7f032e92a9e8 cycle: 3203807
[L1D] handle_read read miss instr_id: 4421053 address: 1fc0cba69a4 full_addr: 7f032e9a6910 cycle: 3203810
[L1D] handle_read read miss instr_id: 4421064 address: 1fc0cba739f full_addr: 7f032e9ce7d0 cycle: 3203942
[L1D] handle_read read miss instr_id: 4421059 address: 1fc0cba4aa7 full_addr: 7f032e92a9ec cycle: 3203995
[L1D] handle_read read miss instr_id: 4421068 address: 1fc0cba73cb full_addr: 7f032e9cf2fc cycle: 3204303
[L1D] handle_read read miss instr_id: 4421070 address: 1fc0cba73cc full_addr: 7f032e9cf309 cycle: 3204527
[L1D] handle_read read miss instr_id: 4421079 address: 1fc0cba4b4d full_addr: 7f032e92d350 cycle: 3204779
[L1D] handle_read read miss instr_id: 4421153 address: 1fc0cba736a full_addr: 7f032e9cda80 cycle: 3205137
[L1D] handle_read read miss instr_id: 4421159 address: 1fc0cba6aa6 full_addr: 7f032e9aa9a4 cycle: 3205394
[L1D] handle_read read miss instr_id: 4421182 address: 1fc0cba7369 full_addr: 7f032e9cda70 cycle: 3205670
[L1D] handle_read read miss instr_id: 4421188 address: 1fc0cba734e full_addr: 7f032e9cd3b0 cycle: 3205895
[L1D] handle_read read miss instr_id: 4421214 address: 1fc0cba4654 full_addr: 7f032e919510 cycle: 3206162
[L1D] handle_read read miss instr_id: 4421224 address: 1fc0cba4653 full_addr: 7f032e9194c8 cycle: 3206402
[L1D] handle_read read miss instr_id: 4421572 address: 1fc0cba475b full_addr: 7f032e91d6fc cycle: 3206809
[L1D] handle_read read miss instr_id: 4421831 address: 1fc0cba47d9 full_addr: 7f032e91f670 cycle: 3207060
[L1D] handle_read read miss instr_id: 4421874 address: 1fc0cba742f full_addr: 7f032e9d0bd8 cycle: 3207168
[L1D] handle_read read miss instr_id: 4421894 address: 1fc0cba4c6f full_addr: 7f032e931bc0 cycle: 3207186
[L1D] handle_read read miss instr_id: 4421968 address: 1fc0cba7351 full_addr: 7f032e9cd450 cycle: 3207676
[L1D] handle_read read miss instr_id: 4421974 address: 1fc0cba4c87 full_addr: 7f032e9321dc cycle: 3207933
[L1D] handle_read read miss instr_id: 4422006 address: 1fc0cba7356 full_addr: 7f032e9cd580 cycle: 3208106
[L1D] handle_read read miss instr_id: 4422017 address: 1fc0cba7355 full_addr: 7f032e9cd570 cycle: 3208255
[L1D] handle_read read miss instr_id: 4422022 address: 1fc0cba735b full_addr: 7f032e9cd6c0 cycle: 3208480
[L1D] handle_read read miss instr_id: 4422049 address: 1fc0cba735a full_addr: 7f032e9cd6b0 cycle: 3208728
[L1D] handle_read read miss instr_id: 4422057 address: 1fc0cba7359 full_addr: 7f032e9cd640 cycle: 3208853
[L1D] handle_read read miss instr_id: 4422076 address: 1fc0cba7358 full_addr: 7f032e9cd630 cycle: 3208996
[L1D] handle_read read miss instr_id: 4422502 address: 1fc0cba7357 full_addr: 7f032e9cd5f0 cycle: 3209369
[L1D] handle_read read miss instr_id: 4422514 address: 1fc0cba735c full_addr: 7f032e9cd700 cycle: 3209594
[L1D] handle_read read miss instr_id: 4422525 address: 1fc0cba6f86 full_addr: 7f032e9be1bc cycle: 3209844
[L1D] handle_read read miss instr_id: 4422527 address: 1fc0cba6f87 full_addr: 7f032e9be1c0 cycle: 3209844
[L1D] handle_read read miss instr_id: 4422528 address: 1fc0cba7452 full_addr: 7f032e9d149c cycle: 3210185
[L1D] handle_read read miss instr_id: 4422530 address: 1fc0cba7453 full_addr: 7f032e9d14c0 cycle: 3210185
[L1D] handle_read read miss instr_id: 4422576 address: 1fc0cba6f8a full_addr: 7f032e9be2a0 cycle: 3210466
[L1D] handle_read read miss instr_id: 4422599 address: 1fc0cba6f8a full_addr: 7f032e9be2a0 cycle: 3210491
[L1D] handle_read read miss instr_id: 4422577 address: 1fc0cba45fa full_addr: 7f032e917eac cycle: 3210699
[L1D] handle_read read miss instr_id: 4422678 address: 1fc0cba7354 full_addr: 7f032e9cd530 cycle: 3211029
[L1D] handle_read read miss instr_id: 4422704 address: 1fc0cba74b8 full_addr: 7f032e9d2e18 cycle: 3211138
[L1D] handle_read read miss instr_id: 4422705 address: 1fc0cba74ff full_addr: 7f032e9d3ff8 cycle: 3211471
[L1D] handle_read read miss instr_id: 4422711 address: 1fc0cba750e full_addr: 7f032e9d4390 cycle: 3211813
[L1D] handle_read read miss instr_id: 4422731 address: 1fc0cba4f8f full_addr: 7f032e93e3c8 cycle: 3212054
[L1D] handle_read read miss instr_id: 4422935 address: 1fc0cba7121 full_addr: 7f032e9c4840 cycle: 3212380
[L1D] handle_read read miss instr_id: 4422971 address: 1fc0cba7121 full_addr: 7f032e9c4858 cycle: 3212388
[L1D] handle_read read miss instr_id: 4422983 address: 1fc0cba7121 full_addr: 7f032e9c4860 cycle: 3212398
[L1D] handle_read read miss instr_id: 4422995 address: 1fc0cba7121 full_addr: 7f032e9c4868 cycle: 3212408
[L1D] handle_read read miss instr_id: 4423007 address: 1fc0cba7121 full_addr: 7f032e9c4870 cycle: 3212418
[L1D] handle_read read miss instr_id: 4423031 address: 1fc0cba7122 full_addr: 7f032e9c4880 cycle: 3212438
[L1D] handle_read read miss instr_id: 4423043 address: 1fc0cba7122 full_addr: 7f032e9c4888 cycle: 3212449
[L1D] handle_read read miss instr_id: 4423055 address: 1fc0cba7122 full_addr: 7f032e9c4890 cycle: 3212458
[L1D] handle_read read miss instr_id: 4423067 address: 1fc0cba7122 full_addr: 7f032e9c4898 cycle: 3212468
[L1D] handle_read read miss instr_id: 4423079 address: 1fc0cba7122 full_addr: 7f032e9c48a0 cycle: 3212478
[L1D] handle_read read miss instr_id: 4423091 address: 1fc0cba7122 full_addr: 7f032e9c48a8 cycle: 3212488
[L1D] handle_read read miss instr_id: 4423103 address: 1fc0cba7122 full_addr: 7f032e9c48b0 cycle: 3212498
[L1D] handle_read read miss instr_id: 4423115 address: 1fc0cba7122 full_addr: 7f032e9c48b8 cycle: 3212508
[L1D] handle_read read miss instr_id: 4423127 address: 1fc0cba7123 full_addr: 7f032e9c48c0 cycle: 3212518
[L1D] handle_read read miss instr_id: 4423139 address: 1fc0cba7123 full_addr: 7f032e9c48c8 cycle: 3212528
[L1D] handle_read read miss instr_id: 4423596 address: 1fc0cba45f9 full_addr: 7f032e917e78 cycle: 3212967
[L1D] handle_read read miss instr_id: 4423609 address: 1fc0cba7513 full_addr: 7f032e9d44f0 cycle: 3213201
[L1D] handle_read read miss instr_id: 4423635 address: 1fc0cba7516 full_addr: 7f032e9d4598 cycle: 3213467
[L1D] handle_read read miss instr_id: 4423712 address: 1fc0cba7517 full_addr: 7f032e9d45d0 cycle: 3213798
[L1D] handle_read read miss instr_id: 4423746 address: 1fc0cba6f89 full_addr: 7f032e9be27c cycle: 3214058
[L1D] handle_read read miss instr_id: 4423777 address: 1fc0cba7515 full_addr: 7f032e9d4550 cycle: 3214101
[L1D] handle_read read miss instr_id: 4423917 address: 1fc0cba7447 full_addr: 7f032e9d11c0 cycle: 3214497
[L1D] handle_read read miss instr_id: 4423937 address: 1fc0cba7446 full_addr: 7f032e9d11b0 cycle: 3214666
[L1D] handle_read read miss instr_id: 4423943 address: 1fc0cba7450 full_addr: 7f032e9d1408 cycle: 3214791
[L1D] handle_read read miss instr_id: 4423954 address: 1fc0cba744f full_addr: 7f032e9d13f8 cycle: 3214940
[L1D] handle_read read miss instr_id: 4423959 address: 1fc0cba7511 full_addr: 7f032e9d4468 cycle: 3215065
[L1D] handle_read read miss instr_id: 4423966 address: 1fc0cba7512 full_addr: 7f032e9d4480 cycle: 3215307
[L1D] handle_read read miss instr_id: 4423983 address: 1fc0cba7527 full_addr: 7f032e9d49d8 cycle: 3215317
[L1D] handle_read read miss instr_id: 4424058 address: 1fc0cba7519 full_addr: 7f032e9d4640 cycle: 3215666
[L1D] handle_read read miss instr_id: 4424077 address: 1fc0cba7518 full_addr: 7f032e9d4630 cycle: 3215809
[L1D] handle_read read miss instr_id: 4424082 address: 1fc0cba744c full_addr: 7f032e9d1328 cycle: 3215934
[L1D] handle_read read miss instr_id: 4424534 address: 1fc0cba744e full_addr: 7f032e9d13b0 cycle: 3216726
[L1D] handle_read read miss instr_id: 4424546 address: 1fc0cba744a full_addr: 7f032e9d12a8 cycle: 3216851
[L1D] handle_read read miss instr_id: 4424582 address: 1fc0cba744b full_addr: 7f032e9d12c8 cycle: 3217094
[L1D] handle_read read miss instr_id: 4424588 address: 1fc0cba751b full_addr: 7f032e9d46c8 cycle: 3217219
[L1D] handle_read read miss instr_id: 4424608 address: 1fc0cba751a full_addr: 7f032e9d46b8 cycle: 3217376
[L1D] handle_read read miss instr_id: 4424614 address: 1fc0cba7525 full_addr: 7f032e9d4968 cycle: 3217501
[L1D] handle_read read miss instr_id: 4424624 address: 1fc0cba7526 full_addr: 7f032e9d4990 cycle: 3217633
[L1D] handle_read read miss instr_id: 4424647 address: 1fc0cba6f88 full_addr: 7f032e9be220 cycle: 3217763
[L1D] handle_read read miss instr_id: 4424650 address: 1fc0cba7543 full_addr: 7f032e9d50c8 cycle: 3218096
[L1D] handle_read read miss instr_id: 4424679 address: 1fc0cba7545 full_addr: 7f032e9d5150 cycle: 3218097
[L1D] handle_read read miss instr_id: 4424739 address: 1fc0cba7544 full_addr: 7f032e9d5108 cycle: 3218099
[L1D] handle_read read miss instr_id: 4424768 address: 1fc0cba7530 full_addr: 7f032e9d4c38 cycle: 3218291
[L1D] handle_read read miss instr_id: 4424778 address: 1fc0cba752e full_addr: 7f032e9d4bac cycle: 3218291
[L1D] handle_read read miss instr_id: 4424897 address: 1fc0cba752f full_addr: 7f032e9d4bf8 cycle: 3218628
[L1D] handle_read read miss instr_id: 4425478 address: 1fc0cba751c full_addr: 7f032e9d4728 cycle: 3219495
[L1D] handle_read read miss instr_id: 4432598 address: 1fc0cba59d3 full_addr: 7f032e9674c0 cycle: 3227448
[L1D] handle_read read miss instr_id: 4432606 address: 1fc0cba59d3 full_addr: 7f032e9674c1 cycle: 3227454
[L1D] handle_read read miss instr_id: 4433171 address: 1fc0cba59d4 full_addr: 7f032e967500 cycle: 3227956
[L1D] handle_read read miss instr_id: 4433179 address: 1fc0cba59d4 full_addr: 7f032e967501 cycle: 3227962
[L1D] handle_read read miss instr_id: 4433187 address: 1fc0cba59d4 full_addr: 7f032e967502 cycle: 3227968
[L1D] handle_read read miss instr_id: 4433709 address: 1fc0cba59d5 full_addr: 7f032e967540 cycle: 3228389
[L1D] handle_read read miss instr_id: 4433717 address: 1fc0cba59d5 full_addr: 7f032e967541 cycle: 3228395
[L1D] handle_read read miss instr_id: 4433725 address: 1fc0cba59d5 full_addr: 7f032e967542 cycle: 3228401
[L1D] handle_read read miss instr_id: 4434282 address: 1fc0cba59d6 full_addr: 7f032e967580 cycle: 3228878
[L1D] handle_read read miss instr_id: 4434290 address: 1fc0cba59d6 full_addr: 7f032e967581 cycle: 3228884
[L1D] handle_read read miss instr_id: 4434298 address: 1fc0cba59d6 full_addr: 7f032e967582 cycle: 3228890
[L1D] handle_read read miss instr_id: 4435931 address: 1fc0cba59d9 full_addr: 7f032e967640 cycle: 3230187
[L1D] handle_read read miss instr_id: 4435939 address: 1fc0cba59d9 full_addr: 7f032e967641 cycle: 3230193
[L1D] handle_read read miss instr_id: 4436556 address: 1fc0cba59da full_addr: 7f032e967680 cycle: 3230742
[L1D] handle_read read miss instr_id: 4436564 address: 1fc0cba59da full_addr: 7f032e967681 cycle: 3230748
[L1D] handle_read read miss instr_id: 4436572 address: 1fc0cba59da full_addr: 7f032e967682 cycle: 3230754
[L1D] handle_read read miss instr_id: 4439634 address: 1fc0cba5a13 full_addr: 7f032e9684c0 cycle: 3233744
[L1D] handle_read read miss instr_id: 4439642 address: 1fc0cba5a13 full_addr: 7f032e9684c1 cycle: 3233750
[L1D] handle_read read miss instr_id: 4439650 address: 1fc0cba5a13 full_addr: 7f032e9684c2 cycle: 3233756
[L1D] handle_read read miss instr_id: 4440146 address: 1fc0cba5a14 full_addr: 7f032e968500 cycle: 3234128
[L1D] handle_read read miss instr_id: 4440154 address: 1fc0cba5a14 full_addr: 7f032e968501 cycle: 3234134
[L1D] handle_read read miss instr_id: 4440162 address: 1fc0cba5a14 full_addr: 7f032e968502 cycle: 3234140
[L1D] handle_read read miss instr_id: 4440710 address: 1fc0cba5a15 full_addr: 7f032e968540 cycle: 3234593
[L1D] handle_read read miss instr_id: 4440718 address: 1fc0cba5a15 full_addr: 7f032e968541 cycle: 3234599
[L1D] handle_read read miss instr_id: 4440726 address: 1fc0cba5a15 full_addr: 7f032e968542 cycle: 3234605
[L1D] handle_read read miss instr_id: 4441364 address: 1fc0cba5a16 full_addr: 7f032e968580 cycle: 3235200
[L1D] handle_read read miss instr_id: 4443098 address: 1fc0cba5a19 full_addr: 7f032e968640 cycle: 3236616
[L1D] handle_read read miss instr_id: 4443106 address: 1fc0cba5a19 full_addr: 7f032e968641 cycle: 3236622
[L1D] handle_read read miss instr_id: 4443114 address: 1fc0cba5a19 full_addr: 7f032e968642 cycle: 3236628
[L1D] handle_read read miss instr_id: 4443610 address: 1fc0cba5a1a full_addr: 7f032e968680 cycle: 3237000
[L1D] handle_read read miss instr_id: 4443618 address: 1fc0cba5a1a full_addr: 7f032e968681 cycle: 3237006
[L1D] handle_read read miss instr_id: 4443626 address: 1fc0cba5a1a full_addr: 7f032e968682 cycle: 3237012
[L1D] handle_read read miss instr_id: 4445976 address: 1fc0cba3d8c full_addr: 7f032e8f6300 cycle: 3239421
[L1D] handle_read read miss instr_id: 4445991 address: 1fc0cba3d8c full_addr: 7f032e8f6300 cycle: 3239429
[L1D] handle_read read miss instr_id: 4445999 address: 1fc0cba3d8c full_addr: 7f032e8f6301 cycle: 3239435
[L1D] handle_read read miss instr_id: 4446555 address: 1fc0cba3d8d full_addr: 7f032e8f6340 cycle: 3239893
[L1D] handle_read read miss instr_id: 4446563 address: 1fc0cba3d8d full_addr: 7f032e8f6341 cycle: 3239899
[L1D] handle_read read miss instr_id: 4446571 address: 1fc0cba3d8d full_addr: 7f032e8f6342 cycle: 3239905
[L1D] handle_read read miss instr_id: 4447119 address: 1fc0cba3d8e full_addr: 7f032e8f6380 cycle: 3240357
[L1D] handle_read read miss instr_id: 4448374 address: 1fc0cba3d90 full_addr: 7f032e8f6400 cycle: 3241545
[L1D] handle_read read miss instr_id: 4448382 address: 1fc0cba3d90 full_addr: 7f032e8f6401 cycle: 3241551
[L1D] handle_read read miss instr_id: 4448390 address: 1fc0cba3d90 full_addr: 7f032e8f6402 cycle: 3241557
[L1D] handle_read read miss instr_id: 4449476 address: 1fc0cba3d92 full_addr: 7f032e8f6480 cycle: 3242469
[L1D] handle_read read miss instr_id: 4449484 address: 1fc0cba3d92 full_addr: 7f032e8f6481 cycle: 3242475
[L1D] handle_read read miss instr_id: 4449492 address: 1fc0cba3d92 full_addr: 7f032e8f6482 cycle: 3242481
[L1D] handle_read read miss instr_id: 4450054 address: 1fc0cba3d93 full_addr: 7f032e8f64c0 cycle: 3242956
[L1D] handle_read read miss instr_id: 4450062 address: 1fc0cba3d93 full_addr: 7f032e8f64c1 cycle: 3242962
[L1D] handle_read read miss instr_id: 4450070 address: 1fc0cba3d93 full_addr: 7f032e8f64c2 cycle: 3242968
[L1D] handle_read read miss instr_id: 4450618 address: 1fc0cba3d94 full_addr: 7f032e8f6500 cycle: 3243420
[L1D] handle_read read miss instr_id: 4450626 address: 1fc0cba3d94 full_addr: 7f032e8f6501 cycle: 3243426
[L1D] handle_read read miss instr_id: 4450634 address: 1fc0cba3d94 full_addr: 7f032e8f6502 cycle: 3243432
[L1D] handle_read read miss instr_id: 4451156 address: 1fc0cba3d95 full_addr: 7f032e8f6540 cycle: 3243844
[L1D] handle_read read miss instr_id: 4451164 address: 1fc0cba3d95 full_addr: 7f032e8f6541 cycle: 3243850
[L1D] handle_read read miss instr_id: 4451172 address: 1fc0cba3d95 full_addr: 7f032e8f6542 cycle: 3243856
[L1D] handle_read read miss instr_id: 4454096 address: 1fc0cba5a4c full_addr: 7f032e969300 cycle: 3246810
[L1D] handle_read read miss instr_id: 4454104 address: 1fc0cba5a4c full_addr: 7f032e969301 cycle: 3246816
[L1D] handle_read read miss instr_id: 4454112 address: 1fc0cba5a4c full_addr: 7f032e969302 cycle: 3246822
[L1D] handle_read read miss instr_id: 4454686 address: 1fc0cba5a4d full_addr: 7f032e969340 cycle: 3247314
[L1D] handle_read read miss instr_id: 4454694 address: 1fc0cba5a4d full_addr: 7f032e969341 cycle: 3247320
[L1D] handle_read read miss instr_id: 4454702 address: 1fc0cba5a4d full_addr: 7f032e969342 cycle: 3247326
[L1D] handle_read read miss instr_id: 4455276 address: 1fc0cba5a4e full_addr: 7f032e969380 cycle: 3247818
[L1D] handle_read read miss instr_id: 4455284 address: 1fc0cba5a4e full_addr: 7f032e969381 cycle: 3247824
[L1D] handle_read read miss instr_id: 4455292 address: 1fc0cba5a4e full_addr: 7f032e969382 cycle: 3247830
[L1D] handle_read read miss instr_id: 4456491 address: 1fc0cba5a50 full_addr: 7f032e969400 cycle: 3248926
[L1D] handle_read read miss instr_id: 4456499 address: 1fc0cba5a50 full_addr: 7f032e969401 cycle: 3248932
[L1D] handle_read read miss instr_id: 4456507 address: 1fc0cba5a50 full_addr: 7f032e969402 cycle: 3248938
[L1D] handle_read read miss instr_id: 4459565 address: 1fc0cba5a52 full_addr: 7f032e969480 cycle: 3252280
[L1D] handle_read read miss instr_id: 4459573 address: 1fc0cba5a52 full_addr: 7f032e969481 cycle: 3252286
[L1D] handle_read read miss instr_id: 4459581 address: 1fc0cba5a52 full_addr: 7f032e969482 cycle: 3252292
[L1D] handle_read read miss instr_id: 4468113 address: 1fc0cba5b71 full_addr: 7f032e96dc40 cycle: 3261158
[L1D] handle_read read miss instr_id: 4468121 address: 1fc0cba5b71 full_addr: 7f032e96dc41 cycle: 3261164
[L1D] handle_read read miss instr_id: 4468129 address: 1fc0cba5b71 full_addr: 7f032e96dc42 cycle: 3261170
[L1D] handle_read read miss instr_id: 4468677 address: 1fc0cba5b72 full_addr: 7f032e96dc80 cycle: 3261616
[L1D] handle_read read miss instr_id: 4468685 address: 1fc0cba5b72 full_addr: 7f032e96dc81 cycle: 3261622
[L1D] handle_read read miss instr_id: 4468693 address: 1fc0cba5b72 full_addr: 7f032e96dc82 cycle: 3261628
[L1D] handle_read read miss instr_id: 4478492 address: 1fc0cba5bb1 full_addr: 7f032e96ec40 cycle: 3271539
[L1D] handle_read read miss instr_id: 4479134 address: 1fc0cba5bb2 full_addr: 7f032e96ec80 cycle: 3272108
[L1D] handle_read read miss instr_id: 4479142 address: 1fc0cba5bb2 full_addr: 7f032e96ec81 cycle: 3272114
[L1D] handle_read read miss instr_id: 4479150 address: 1fc0cba5bb2 full_addr: 7f032e96ec82 cycle: 3272120
[L1D] handle_read read miss instr_id: 4514390 address: 1fc0cba5c4c full_addr: 7f032e971300 cycle: 3307586
[L1D] handle_read read miss instr_id: 4515735 address: 1fc0cba624c full_addr: 7f032e989320 cycle: 3309167
[L1D] handle_read read miss instr_id: 4515759 address: 1fc0cba624c full_addr: 7f032e989323 cycle: 3309174
[L1D] handle_read read miss instr_id: 4515767 address: 1fc0cba624c full_addr: 7f032e989324 cycle: 3309180
[L1D] handle_read read miss instr_id: 4518322 address: 1fc0cba5c4e full_addr: 7f032e971380 cycle: 3312111
[L1D] handle_read read miss instr_id: 4518330 address: 1fc0cba5c4e full_addr: 7f032e971381 cycle: 3312117
[L1D] handle_read read miss instr_id: 4518338 address: 1fc0cba5c4e full_addr: 7f032e971382 cycle: 3312123
[L1D] handle_read read miss instr_id: 4519460 address: 1fc0cba5c50 full_addr: 7f032e971400 cycle: 3313043
[L1D] handle_read read miss instr_id: 4519468 address: 1fc0cba5c50 full_addr: 7f032e971401 cycle: 3313049
[L1D] handle_read read miss instr_id: 4519476 address: 1fc0cba5c50 full_addr: 7f032e971402 cycle: 3313055
[L1D] handle_read read miss instr_id: 4520633 address: 1fc0cba5c52 full_addr: 7f032e971480 cycle: 3314049
[L1D] handle_read read miss instr_id: 4520641 address: 1fc0cba5c52 full_addr: 7f032e971481 cycle: 3314055
[L1D] handle_read read miss instr_id: 4521263 address: 1fc0cba5c53 full_addr: 7f032e9714c0 cycle: 3314640
[L1D] handle_read read miss instr_id: 4521271 address: 1fc0cba5c53 full_addr: 7f032e9714c1 cycle: 3314646
[L1D] handle_read read miss instr_id: 4521279 address: 1fc0cba5c53 full_addr: 7f032e9714c2 cycle: 3314652
[L1D] handle_read read miss instr_id: 4521863 address: 1fc0cba5c54 full_addr: 7f032e971500 cycle: 3315160
[L1D] handle_read read miss instr_id: 4521871 address: 1fc0cba5c54 full_addr: 7f032e971501 cycle: 3315166
[L1D] handle_read read miss instr_id: 4521879 address: 1fc0cba5c54 full_addr: 7f032e971502 cycle: 3315172
[L1D] handle_read read miss instr_id: 4525788 address: 30f903e630c full_addr: c3e40f98c300 cycle: 3319357
[L1D] handle_read read miss instr_id: 4525796 address: 30f903e630c full_addr: c3e40f98c301 cycle: 3319363
[L1D] handle_read read miss instr_id: 4525804 address: 30f903e630c full_addr: c3e40f98c302 cycle: 3319369
[L1D] handle_read read miss instr_id: 4526357 address: 30f903e630d full_addr: c3e40f98c340 cycle: 3319823
[L1D] handle_read read miss instr_id: 4526365 address: 30f903e630d full_addr: c3e40f98c341 cycle: 3319829
[L1D] handle_read read miss instr_id: 4526926 address: 30f903e630e full_addr: c3e40f98c380 cycle: 3320291
[L1D] handle_read read miss instr_id: 4526934 address: 30f903e630e full_addr: c3e40f98c381 cycle: 3320297
[L1D] handle_read read miss instr_id: 4526942 address: 30f903e630e full_addr: c3e40f98c382 cycle: 3320303
[L1D] handle_read read miss instr_id: 4528012 address: 30f903e6310 full_addr: c3e40f98c400 cycle: 3321143
[L1D] handle_read read miss instr_id: 4528020 address: 30f903e6310 full_addr: c3e40f98c401 cycle: 3321149
[L1D] handle_read read miss instr_id: 4528028 address: 30f903e6310 full_addr: c3e40f98c402 cycle: 3321155
[L1D] handle_read read miss instr_id: 4529124 address: 30f903e6312 full_addr: c3e40f98c480 cycle: 3322035
[L1D] handle_read read miss instr_id: 4529132 address: 30f903e6312 full_addr: c3e40f98c481 cycle: 3322041
[L1D] handle_read read miss instr_id: 4529140 address: 30f903e6312 full_addr: c3e40f98c482 cycle: 3322047
[L1D] handle_read read miss instr_id: 4529667 address: 30f903e6313 full_addr: c3e40f98c4c0 cycle: 3322468
[L1D] handle_read read miss instr_id: 4529675 address: 30f903e6313 full_addr: c3e40f98c4c1 cycle: 3322474
[L1D] handle_read read miss instr_id: 4529683 address: 30f903e6313 full_addr: c3e40f98c4c2 cycle: 3322480
[L1D] handle_read read miss instr_id: 4530210 address: 30f903e6314 full_addr: c3e40f98c500 cycle: 3322894
[L1D] handle_read read miss instr_id: 4530218 address: 30f903e6314 full_addr: c3e40f98c501 cycle: 3322900
[L1D] handle_read read miss instr_id: 4530226 address: 30f903e6314 full_addr: c3e40f98c502 cycle: 3322906
[L1D] handle_read read miss instr_id: 4534354 address: 30f903e6319 full_addr: c3e40f98c640 cycle: 3327275
[L1D] handle_read read miss instr_id: 4534362 address: 30f903e6319 full_addr: c3e40f98c641 cycle: 3327281
[L1D] handle_read read miss instr_id: 4534370 address: 30f903e6319 full_addr: c3e40f98c642 cycle: 3327287
[L1D] handle_read read miss instr_id: 4534949 address: 30f903e631a full_addr: c3e40f98c680 cycle: 3327790
[L1D] handle_read read miss instr_id: 4534957 address: 30f903e631a full_addr: c3e40f98c681 cycle: 3327796
[L1D] handle_read read miss instr_id: 4534965 address: 30f903e631a full_addr: c3e40f98c682 cycle: 3327802
[L1D] handle_read read miss instr_id: 4548189 address: 1fc0cba3e50 full_addr: 7f032e8f9420 cycle: 3340943
[L1D] handle_read read miss instr_id: 4553786 address: 1fc0cba3e8c full_addr: 7f032e8fa300 cycle: 3345850
[L1D] handle_read read miss instr_id: 4553794 address: 1fc0cba3e8c full_addr: 7f032e8fa301 cycle: 3345856
[L1D] handle_read read miss instr_id: 4554451 address: 1fc0cba3e8d full_addr: 7f032e8fa340 cycle: 3346512
[L1D] handle_read read miss instr_id: 4554459 address: 1fc0cba3e8d full_addr: 7f032e8fa341 cycle: 3346518
[L1D] handle_read read miss instr_id: 4554467 address: 1fc0cba3e8d full_addr: 7f032e8fa342 cycle: 3346524
[L1D] handle_read read miss instr_id: 4555072 address: 1fc0cba3e8e full_addr: 7f032e8fa380 cycle: 3347058
[L1D] handle_read read miss instr_id: 4555080 address: 1fc0cba3e8e full_addr: 7f032e8fa381 cycle: 3347064
[L1D] handle_read read miss instr_id: 4555088 address: 1fc0cba3e8e full_addr: 7f032e8fa382 cycle: 3347070
[L1D] handle_read read miss instr_id: 4556366 address: 1fc0cba3e90 full_addr: 7f032e8fa400 cycle: 3348241
[...]
[L1D] handle_read read miss instr_id: 9844312 address: 1fc0cba7fc9 full_addr: 7f032e9ff254 cycle: 7383473
[L1D] handle_read read miss instr_id: 9844317 address: 1fc0cba7fc8 full_addr: 7f032e9ff228 cycle: 7383473
[L1D] handle_read read miss instr_id: 9844439 address: 1fc0cba8927 full_addr: 7f032ea249c8 cycle: 7383923
[L1D] handle_read read miss instr_id: 9844440 address: 1fc0cba8971 full_addr: 7f032ea25c48 cycle: 7384156
[L1D] handle_read read miss instr_id: 9844442 address: 1fc0cba889a full_addr: 7f032ea22698 cycle: 7384380
[L1D] handle_read read miss instr_id: 9844446 address: 1fc0cba8757 full_addr: 7f032ea1d5e0 cycle: 7384614
[L1D] handle_read read miss instr_id: 9844466 address: 1fc0cba4f9a full_addr: 7f032e93e698 cycle: 7384846
[L1D] handle_read read miss instr_id: 9844670 address: 1fc0cba80f6 full_addr: 7f032ea03db0 cycle: 7385146
[L1D] handle_read read miss instr_id: 9844694 address: 1fc0cba80f7 full_addr: 7f032ea03dc0 cycle: 7385147
[L1D] handle_read read miss instr_id: 9844706 address: 1fc0cba80f7 full_addr: 7f032ea03dc8 cycle: 7385154
[L1D] handle_read read miss instr_id: 9844718 address: 1fc0cba80f7 full_addr: 7f032ea03dd0 cycle: 7385164
[L1D] handle_read read miss instr_id: 9844730 address: 1fc0cba80f7 full_addr: 7f032ea03dd8 cycle: 7385174
[L1D] handle_read read miss instr_id: 9845344 address: 1fc0cba8771 full_addr: 7f032ea1dc70 cycle: 7385750
[L1D] handle_read read miss instr_id: 9845370 address: 1fc0cba8774 full_addr: 7f032ea1dd18 cycle: 7386016
[L1D] handle_read read miss instr_id: 9845447 address: 1fc0cba8775 full_addr: 7f032ea1dd50 cycle: 7386375
[L1D] handle_read read miss instr_id: 9845481 address: 1fc0cba8899 full_addr: 7f032ea2267c cycle: 7386635
[L1D] handle_read read miss instr_id: 9845512 address: 1fc0cba8773 full_addr: 7f032ea1dcd0 cycle: 7386678
[L1D] handle_read read miss instr_id: 9845652 address: 1fc0cba88c0 full_addr: 7f032ea23000 cycle: 7387065
[L1D] handle_read read miss instr_id: 9845672 address: 1fc0cba87bf full_addr: 7f032ea1eff0 cycle: 7387331
[L1D] handle_read read miss instr_id: 9845678 address: 1fc0cba88c9 full_addr: 7f032ea23248 cycle: 7387556
[L1D] handle_read read miss instr_id: 9845689 address: 1fc0cba88c8 full_addr: 7f032ea23238 cycle: 7387705
[L1D] handle_read read miss instr_id: 9845694 address: 1fc0cba876f full_addr: 7f032ea1dbe8 cycle: 7387830
[L1D] handle_read read miss instr_id: 9845701 address: 1fc0cba8770 full_addr: 7f032ea1dc00 cycle: 7387972
[L1D] handle_read read miss instr_id: 9845718 address: 1fc0cba87a9 full_addr: 7f032ea1ea78 cycle: 7387982
[L1D] handle_read read miss instr_id: 9845730 address: 1fc0cba87aa full_addr: 7f032ea1ea8a cycle: 7388221
[L1D] handle_read read miss instr_id: 9845793 address: 1fc0cba879b full_addr: 7f032ea1e6e0 cycle: 7388542
[L1D] handle_read read miss instr_id: 9845817 address: 1fc0cba88c5 full_addr: 7f032ea23168 cycle: 7388693
[L1D] handle_read read miss instr_id: 9845934 address: 1fc0cba3231 full_addr: 7f032e8c8c40 cycle: 7389038
[L1D] handle_read read miss instr_id: 9846269 address: 1fc0cba88c7 full_addr: 7f032ea231f0 cycle: 7389452
[L1D] handle_read read miss instr_id: 9846281 address: 1fc0cba88c3 full_addr: 7f032ea230e8 cycle: 7389677
[L1D] handle_read read miss instr_id: 9846317 address: 1fc0cba88c4 full_addr: 7f032ea23108 cycle: 7389987
[L1D] handle_read read miss instr_id: 9846323 address: 1fc0cba879d full_addr: 7f032ea1e768 cycle: 7390212
[L1D] handle_read read miss instr_id: 9846349 address: 1fc0cba87a8 full_addr: 7f032ea1ea08 cycle: 7390478
[L1D] handle_read read miss instr_id: 9846382 address: 1fc0cba8898 full_addr: 7f032ea22620 cycle: 7390618
[L1D] handle_read read miss instr_id: 9846399 address: 1fc0cba86a1 full_addr: 7f032ea1a84b cycle: 7390851
[L1D] handle_read read miss instr_id: 9846414 address: 1fc0cba86a3 full_addr: 7f032ea1a8c0 cycle: 7390852
[L1D] handle_read read miss instr_id: 9846513 address: 1fc0cba877a full_addr: 7f032ea1de8c cycle: 7391102
[L1D] handle_read read miss instr_id: 9846503 address: 1fc0cba877c full_addr: 7f032ea1df18 cycle: 7391106
[L1D] handle_read read miss instr_id: 9846645 address: 1fc0cba8779 full_addr: 7f032ea1de70 cycle: 7391413
[L1D] handle_read read miss instr_id: 9846632 address: 1fc0cba877b full_addr: 7f032ea1ded8 cycle: 7391414
[L1D] handle_read read miss instr_id: 9846716 address: 1fc0cba30a3 full_addr: 7f032e8c28f3 cycle: 7391604
[L1D] handle_read read miss instr_id: 9847014 address: 1fc0cba87a7 full_addr: 7f032ea1e9f8 cycle: 7392087
[L1D] handle_read read miss instr_id: 9847026 address: 1fc0cba879f full_addr: 7f032ea1e7c8 cycle: 7392312
[L1D] handle_read read miss instr_id: 9847054 address: 1fc0cba879e full_addr: 7f032ea1e7b8 cycle: 7392486
[L1D] handle_read read miss instr_id: 9849390 address: 1fc0cba58e0 full_addr: 7f032e963800 cycle: 7395718
[L1D] handle_read read miss instr_id: 9855628 address: 1fc0cba59d7 full_addr: 7f032e9675c0 cycle: 7401476
[L1D] handle_read read miss instr_id: 9855636 address: 1fc0cba59d7 full_addr: 7f032e9675c1 cycle: 7401482
[L1D] handle_read read miss instr_id: 9855644 address: 1fc0cba59d7 full_addr: 7f032e9675c2 cycle: 7401488
[L1D] handle_read read miss instr_id: 9856739 address: 1fc0cba59d9 full_addr: 7f032e967640 cycle: 7402361
[L1D] handle_read read miss instr_id: 9856747 address: 1fc0cba59d9 full_addr: 7f032e967641 cycle: 7402367
[L1D] handle_read read miss instr_id: 9856755 address: 1fc0cba59d9 full_addr: 7f032e967642 cycle: 7402373
[L1D] handle_read read miss instr_id: 9862371 address: 1fc0cba5a17 full_addr: 7f032e9685c0 cycle: 7407369
[L1D] handle_read read miss instr_id: 9862379 address: 1fc0cba5a17 full_addr: 7f032e9685c1 cycle: 7407375
[L1D] handle_read read miss instr_id: 9862387 address: 1fc0cba5a17 full_addr: 7f032e9685c2 cycle: 7407381
[L1D] handle_read read miss instr_id: 9863499 address: 1fc0cba5a19 full_addr: 7f032e968640 cycle: 7408297
[L1D] handle_read read miss instr_id: 9863507 address: 1fc0cba5a19 full_addr: 7f032e968641 cycle: 7408303
[L1D] handle_read read miss instr_id: 9863515 address: 1fc0cba5a19 full_addr: 7f032e968642 cycle: 7408309
[L1D] handle_read read miss instr_id: 9881022 address: 1fc0cba5997 full_addr: 7f032e9665d0 cycle: 7425407
[L1D] handle_read read miss instr_id: 9886022 address: 1fc0cba5b71 full_addr: 7f032e96dc40 cycle: 7429831
[L1D] handle_read read miss instr_id: 9895100 address: 1fc0cba5bb1 full_addr: 7f032e96ec40 cycle: 7438861
[L1D] handle_read read miss instr_id: 9895108 address: 1fc0cba5bb1 full_addr: 7f032e96ec41 cycle: 7438867
[L1D] handle_read read miss instr_id: 9895116 address: 1fc0cba5bb1 full_addr: 7f032e96ec42 cycle: 7438873
[L1D] handle_read read miss instr_id: 9898672 address: 1fc0cba5999 full_addr: 7f032e966640 cycle: 7442636
[L1D] handle_read read miss instr_id: 9910465 address: 1fc0cba5be0 full_addr: 7f032e96f800 cycle: 7454281
[L1D] handle_read read miss instr_id: 9910473 address: 1fc0cba5be0 full_addr: 7f032e96f801 cycle: 7454287
[L1D] handle_read read miss instr_id: 9910481 address: 1fc0cba5be0 full_addr: 7f032e96f802 cycle: 7454293
[L1D] handle_read read miss instr_id: 9944516 address: 30f903e6319 full_addr: c3e40f98c640 cycle: 7487562
[L1D] handle_read read miss instr_id: 9944524 address: 30f903e6319 full_addr: c3e40f98c641 cycle: 7487568
[L1D] handle_read read miss instr_id: 9944532 address: 30f903e6319 full_addr: c3e40f98c642 cycle: 7487574
[L1D] handle_read read miss instr_id: 9949223 address: 30f903e6320 full_addr: c3e40f98c800 cycle: 7492051
[L1D] handle_read read miss instr_id: 9949239 address: 30f903e6320 full_addr: c3e40f98c802 cycle: 7492061
[L1D] handle_read read miss instr_id: 9957395 address: 1fc0cba3d59 full_addr: 7f032e8f5660 cycle: 7499909
[L1D] handle_read read miss instr_id: 9968322 address: 1fc0cba3f60 full_addr: 7f032e8fd810 cycle: 7510359
[L1D] handle_read read miss instr_id: 9977862 address: 1fc0cba88c1 full_addr: 7f032ea23060 cycle: 7520822
[L1D] handle_read read miss instr_id: 9978128 address: 1fc0cba87be full_addr: 7f032ea1efb8 cycle: 7521493
[L1D] handle_read read miss instr_id: 9978512 address: 1fc0cba89a9 full_addr: 7f032ea26a78 cycle: 7522273
[L1D] handle_read read miss instr_id: 9978538 address: 1fc0cba4668 full_addr: 7f032e919a10 cycle: 7522448
[L1D] handle_read read miss instr_id: 9978548 address: 1fc0cba4667 full_addr: 7f032e9199c8 cycle: 7522688
[L1D] handle_read read miss instr_id: 9978669 address: 1fc0cba47d2 full_addr: 7f032e91f4b0 cycle: 7522963
[L1D] handle_read read miss instr_id: 9978896 address: 1fc0cba474c full_addr: 7f032e91d33c cycle: 7523274
[L1D] handle_read read miss instr_id: 9979198 address: 1fc0cba89c8 full_addr: 7f032ea27228 cycle: 7523744
[L1D] handle_read read miss instr_id: 9979207 address: 1fc0cba4b25 full_addr: 7f032e92c958 cycle: 7523986
[L1D] handle_read read miss instr_id: 9979218 address: 1fc0cba8a32 full_addr: 7f032ea28c90 cycle: 7524319
[L1D] handle_read read miss instr_id: 9979292 address: 1fc0cba89ac full_addr: 7f032ea26b18 cycle: 7524676
[L1D] handle_read read miss instr_id: 9979298 address: 1fc0cba8a4c full_addr: 7f032ea29314 cycle: 7525033
[L1D] handle_read read miss instr_id: 9979330 address: 1fc0cba89b1 full_addr: 7f032ea26c48 cycle: 7525206
[L1D] handle_read read miss instr_id: 9979341 address: 1fc0cba89b0 full_addr: 7f032ea26c38 cycle: 7525355
[L1D] handle_read read miss instr_id: 9979346 address: 1fc0cba89b6 full_addr: 7f032ea26d88 cycle: 7525480
[L1D] handle_read read miss instr_id: 9979373 address: 1fc0cba89b5 full_addr: 7f032ea26d78 cycle: 7525728
[L1D] handle_read read miss instr_id: 9979381 address: 1fc0cba89b4 full_addr: 7f032ea26d08 cycle: 7525953
[L1D] handle_read read miss instr_id: 9979400 address: 1fc0cba89b3 full_addr: 7f032ea26cf8 cycle: 7526096
[L1D] handle_read read miss instr_id: 9979826 address: 1fc0cba89b2 full_addr: 7f032ea26cb8 cycle: 7526583
[L1D] handle_read read miss instr_id: 9979838 address: 1fc0cba89b7 full_addr: 7f032ea26dc8 cycle: 7526708
[L1D] handle_read read miss instr_id: 9979849 address: 1fc0cba8892 full_addr: 7f032ea2249c cycle: 7526958
[L1D] handle_read read miss instr_id: 9979852 address: 1fc0cba8a93 full_addr: 7f032ea2a4dc cycle: 7527191
[L1D] handle_read read miss instr_id: 9979854 address: 1fc0cba8a94 full_addr: 7f032ea2a500 cycle: 7527191
[L1D] handle_read read miss instr_id: 9979901 address: 1fc0cba7fca full_addr: 7f032e9ff2bc cycle: 7527375
[L1D] handle_read read miss instr_id: 9979965 address: 1fc0cba7fcb full_addr: 7f032e9ff2c0 cycle: 7527666
[L1D] handle_read read miss instr_id: 9980002 address: 1fc0cba89af full_addr: 7f032ea26bf8 cycle: 7527909
[L1D] handle_read read miss instr_id: 9980028 address: 1fc0cba8aed full_addr: 7f032ea2bb48 cycle: 7528018
[L1D] handle_read read miss instr_id: 9980029 address: 1fc0cba8b1c full_addr: 7f032ea2c728 cycle: 7528264
[L1D] handle_read read miss instr_id: 9980031 address: 1fc0cba8895 full_addr: 7f032ea22578 cycle: 7528388
[L1D] handle_read read miss instr_id: 9980035 address: 1fc0cba8777 full_addr: 7f032ea1ddd0 cycle: 7528522
[L1D] handle_read read miss instr_id: 9980054 address: 1fc0cba8891 full_addr: 7f032ea22478 cycle: 7528747
[L1D] handle_read read miss instr_id: 9980055 address: 1fc0cba4f9b full_addr: 7f032e93e6e8 cycle: 7528871
[L1D] handle_read read miss instr_id: 9980259 address: 1fc0cba8b64 full_addr: 7f032ea2d910 cycle: 7529273
[L1D] handle_read read miss instr_id: 9980307 address: 1fc0cba8b64 full_addr: 7f032ea2d930 cycle: 7529287
[L1D] handle_read read miss instr_id: 9980319 address: 1fc0cba8b64 full_addr: 7f032ea2d938 cycle: 7529297
[L1D] handle_read read miss instr_id: 9980331 address: 1fc0cba8b65 full_addr: 7f032ea2d940 cycle: 7529307
[L1D] handle_read read miss instr_id: 9980343 address: 1fc0cba8b65 full_addr: 7f032ea2d948 cycle: 7529317
[L1D] handle_read read miss instr_id: 9980355 address: 1fc0cba8b65 full_addr: 7f032ea2d950 cycle: 7529327
[L1D] handle_read read miss instr_id: 9980367 address: 1fc0cba8b65 full_addr: 7f032ea2d958 cycle: 7529337
[L1D] handle_read read miss instr_id: 9980933 address: 1fc0cba88d2 full_addr: 7f032ea234b0 cycle: 7529874
[L1D] handle_read read miss instr_id: 9980959 address: 1fc0cba88d5 full_addr: 7f032ea23558 cycle: 7530040
[L1D] handle_read read miss instr_id: 9981036 address: 1fc0cba88d6 full_addr: 7f032ea23590 cycle: 7530271
[L1D] handle_read read miss instr_id: 9981101 address: 1fc0cba88d4 full_addr: 7f032ea23510 cycle: 7530474
[L1D] handle_read read miss instr_id: 9981241 address: 1fc0cba8a88 full_addr: 7f032ea2a200 cycle: 7530770
[L1D] handle_read read miss instr_id: 9981261 address: 1fc0cba8a87 full_addr: 7f032ea2a1f0 cycle: 7530927
[L1D] handle_read read miss instr_id: 9981267 address: 1fc0cba8a91 full_addr: 7f032ea2a448 cycle: 7531052
[L1D] handle_read read miss instr_id: 9981278 address: 1fc0cba8a90 full_addr: 7f032ea2a438 cycle: 7531201
[L1D] handle_read read miss instr_id: 9981283 address: 1fc0cba88d0 full_addr: 7f032ea23428 cycle: 7531326
[L1D] handle_read read miss instr_id: 9981290 address: 1fc0cba88d1 full_addr: 7f032ea23440 cycle: 7531468
[L1D] handle_read read miss instr_id: 9981307 address: 1fc0cba88e7 full_addr: 7f032ea239d8 cycle: 7531478
[L1D] handle_read read miss instr_id: 9981382 address: 1fc0cba88d9 full_addr: 7f032ea23640 cycle: 7531744
[L1D] handle_read read miss instr_id: 9981401 address: 1fc0cba88d8 full_addr: 7f032ea23630 cycle: 7531887
[L1D] handle_read read miss instr_id: 9981406 address: 1fc0cba8a8d full_addr: 7f032ea2a368 cycle: 7532012
[L1D] handle_read read miss instr_id: 9981858 address: 1fc0cba8a8f full_addr: 7f032ea2a3f0 cycle: 7532675
[L1D] handle_read read miss instr_id: 9981870 address: 1fc0cba8a8b full_addr: 7f032ea2a2e8 cycle: 7532800
[L1D] handle_read read miss instr_id: 9981906 address: 1fc0cba8a8c full_addr: 7f032ea2a308 cycle: 7533110
[L1D] handle_read read miss instr_id: 9981912 address: 1fc0cba88db full_addr: 7f032ea236c8 cycle: 7533235
[L1D] handle_read read miss instr_id: 9981932 address: 1fc0cba88da full_addr: 7f032ea236b8 cycle: 7533392
[L1D] handle_read read miss instr_id: 9981938 address: 1fc0cba88e5 full_addr: 7f032ea23968 cycle: 7533517
[L1D] handle_read read miss instr_id: 9981948 address: 1fc0cba88e6 full_addr: 7f032ea23990 cycle: 7533649
[L1D] handle_read read miss instr_id: 9981971 address: 1fc0cba8894 full_addr: 7f032ea22500 cycle: 7533773
[L1D] handle_read read miss instr_id: 9981988 address: 1fc0cba86a4 full_addr: 7f032ea1a90b cycle: 7533906
[L1D] handle_read read miss instr_id: 9982003 address: 1fc0cba86a6 full_addr: 7f032ea1a980 cycle: 7533907
[L1D] handle_read read miss instr_id: 9982117 address: 1fc0cba8893 full_addr: 7f032ea224fc cycle: 7534156
[L1D] handle_read read miss instr_id: 9982092 address: 1fc0cba88f1 full_addr: 7f032ea23c78 cycle: 7534170
[L1D] handle_read read miss instr_id: 9982102 address: 1fc0cba88ef full_addr: 7f032ea23bec cycle: 7534216
[L1D] handle_read read miss instr_id: 9982221 address: 1fc0cba88f0 full_addr: 7f032ea23c38 cycle: 7534418
[L1D] handle_read read miss instr_id: 9982306 address: 1fc0cba5f4c full_addr: 7f032e97d330 cycle: 7534617
[L1D] handle_read read miss instr_id: 9982333 address: 1fc0cba86a5 full_addr: 7f032ea1a948 cycle: 7534648
[L1D] handle_read read miss instr_id: 9982771 address: 30f903e6373 full_addr: c3e40f98dcdc cycle: 7535178
[L1D] handle_read read miss instr_id: 9982782 address: 30f903e6373 full_addr: c3e40f98dcfc cycle: 7535189
[L1D] handle_read read miss instr_id: 9983312 address: 30f903e6371 full_addr: c3e40f98dc54 cycle: 7535545
[L1D] handle_read read miss instr_id: 9983671 address: 1fc0cba30a4 full_addr: 7f032e8c2900 cycle: 7535831
[L1D] handle_read read miss instr_id: 9985343 address: 1fc0cba88dc full_addr: 7f032ea23728 cycle: 7537436
[L1D] handle_read read miss instr_id: 9985659 address: 1fc0cba3e4c full_addr: 7f032e8f9320 cycle: 7538194
Heartbeat CPU 0 instructions: 10000000 cycles: 7549930 heartbeat IPC: 1.32452 cumulative IPC: 1.25903 (Simulation time: 0 hr 0 min 10 sec) 
[L1D] handle_read read miss instr_id: 10046179 address: 1fc0cba59d4 full_addr: 7f032e967500 cycle: 7585638
[L1D] handle_read read miss instr_id: 10046190 address: 1fc0cba59d4 full_addr: 7f032e967501 cycle: 7585652
[L1D] handle_read read miss instr_id: 10157744 address: 1fc0cba5a14 full_addr: 7f032e968500 cycle: 7670432
[L1D] handle_read read miss instr_id: 10250670 address: 1fc0cba3d8c full_addr: 7f032e8f6300 cycle: 7741269
[L1D] handle_read read miss instr_id: 10250681 address: 1fc0cba3d8c full_addr: 7f032e8f6301 cycle: 7741283
[L1D] handle_read read miss instr_id: 10292318 address: 1fc0cba3d90 full_addr: 7f032e8f6400 cycle: 7772525
[L1D] handle_read read miss instr_id: 10292329 address: 1fc0cba3d90 full_addr: 7f032e8f6401 cycle: 7772535
[L1D] handle_read read miss instr_id: 10335316 address: 1fc0cba3d94 full_addr: 7f032e8f6500 cycle: 7804896
[L1D] handle_read read miss instr_id: 10387556 address: 1fc0cba5a4c full_addr: 7f032e969300 cycle: 7844533
[L1D] handle_read read miss instr_id: 10430994 address: 1fc0cba5a50 full_addr: 7f032e969400 cycle: 7877216
[L1D] handle_read read miss instr_id: 10536829 address: 1fc0cba5b71 full_addr: 7f032e96dc40 cycle: 7960112
[L1D] handle_read read miss instr_id: 10654054 address: 1fc0cba5bb1 full_addr: 7f032e96ec40 cycle: 8050397
[L1D] handle_read read miss instr_id: 10654065 address: 1fc0cba5bb1 full_addr: 7f032e96ec41 cycle: 8050407
Finished CPU 0 instructions: 10000000 cycles: 7914996 cumulative IPC: 1.26342 (Simulation time: 0 hr 0 min 11 sec) 

ChampSim completed all CPUs

Region of Interest Statistics

CPU 0 cumulative IPC: 1.26342 instructions: 10000000 cycles: 7914996
L1D TOTAL     ACCESS:    3477661  HIT:    3476366  MISS:       1295
L1D LOAD      ACCESS:    1652888  HIT:    1651697  MISS:       1191
L1D RFO       ACCESS:    1824773  HIT:    1824669  MISS:        104
L1D PREFETCH  ACCESS:          0  HIT:          0  MISS:          0
L1D WRITEBACK ACCESS:          0  HIT:          0  MISS:          0
L1D PREFETCH  REQUESTED:          0  ISSUED:          0  USEFUL:          0  USELESS:          0
L1D AVERAGE MISS LATENCY: 135.431 cycles
L1I TOTAL     ACCESS:    1636804  HIT:    1636353  MISS:        451
L1I LOAD      ACCESS:    1636804  HIT:    1636353  MISS:        451
L1I RFO       ACCESS:          0  HIT:          0  MISS:          0
L1I PREFETCH  ACCESS:          0  HIT:          0  MISS:          0
L1I WRITEBACK ACCESS:          0  HIT:          0  MISS:          0
L1I PREFETCH  REQUESTED:          0  ISSUED:          0  USEFUL:          0  USELESS:          0
L1I AVERAGE MISS LATENCY: 80.3326 cycles
L2C TOTAL     ACCESS:       1903  HIT:        776  MISS:       1127
L2C LOAD      ACCESS:       1642  HIT:        606  MISS:       1036
L2C RFO       ACCESS:        104  HIT:         13  MISS:         91
L2C PREFETCH  ACCESS:          0  HIT:          0  MISS:          0
L2C WRITEBACK ACCESS:        157  HIT:        157  MISS:          0
L2C PREFETCH  REQUESTED:          0  ISSUED:          0  USEFUL:          0  USELESS:          0
L2C AVERAGE MISS LATENCY: 163.557 cycles
LLC TOTAL     ACCESS:       1127  HIT:          0  MISS:       1127
LLC LOAD      ACCESS:       1036  HIT:          0  MISS:       1036
LLC RFO       ACCESS:         91  HIT:          0  MISS:         91
LLC PREFETCH  ACCESS:          0  HIT:          0  MISS:          0
LLC WRITEBACK ACCESS:          0  HIT:          0  MISS:          0
LLC PREFETCH  REQUESTED:          0  ISSUED:          0  USEFUL:          0  USELESS:          0
LLC AVERAGE MISS LATENCY: 133.116 cycles
Major fault: 0 Minor fault: 379

DRAM Statistics
 CHANNEL 0
 RQ ROW_BUFFER_HIT:        443  ROW_BUFFER_MISS:        684
 DBUS_CONGESTED:         92
 WQ ROW_BUFFER_HIT:          0  ROW_BUFFER_MISS:          0  FULL:          0

 AVG_CONGESTED_CYCLE: 6

CPU 0 Branch Prediction Accuracy: 97.4263% MPKI: 4.2237 Average ROB Occupancy at Mispredict: 73.8066

Branch types
NOT_BRANCH: 8358545 83.5854%
BRANCH_DIRECT_JUMP: 200075 2.00075%
BRANCH_INDIRECT: 64447 0.64447%
BRANCH_CONDITIONAL: 1196079 11.9608%
BRANCH_DIRECT_CALL: 83309 0.83309%
BRANCH_INDIRECT_CALL: 6936 0.06936%
BRANCH_RETURN: 90246 0.90246%
BRANCH_OTHER: 0 0%

